*SPEF "ieee 1481-1999"
*DESIGN "multimode_dll"
*DATE "03:49:10 Saturday February 21, 2026"
*VENDOR "The OpenROAD Project"
*PROGRAM "OpenROAD"
*VERSION "dfc4f595dfb2e1c346492ff1f0274abb28725acf"
*DESIGN_FLOW "NAME_SCOPE LOCAL" "PIN_CAP NONE"
*DIVIDER /
*DELIMITER :
*BUS_DELIMITER []
*T_UNIT 1 NS
*C_UNIT 1 PF
*R_UNIT 1 OHM
*L_UNIT 1 HENRY

*NAME_MAP
*3 bias
*4 clk0_out
*5 clk0_phase_sel[0]
*6 clk0_phase_sel[1]
*7 clk0_phase_sel[2]
*8 clk0_phase_sel[3]
*9 clk0_phase_sel[4]
*10 clk1_out
*11 clk1_phase_sel[0]
*12 clk1_phase_sel[1]
*13 clk1_phase_sel[2]
*14 clk1_phase_sel[3]
*15 clk1_phase_sel[4]
*16 clk2_out
*17 clk2_phase_sel[0]
*18 clk2_phase_sel[1]
*19 clk2_phase_sel[2]
*20 clk2_phase_sel[3]
*21 clk2_phase_sel[4]
*22 dco
*23 enable
*24 ext_trim[0]
*25 ext_trim[10]
*26 ext_trim[11]
*27 ext_trim[12]
*28 ext_trim[13]
*29 ext_trim[14]
*30 ext_trim[15]
*31 ext_trim[16]
*32 ext_trim[17]
*33 ext_trim[18]
*34 ext_trim[19]
*35 ext_trim[1]
*36 ext_trim[20]
*37 ext_trim[21]
*38 ext_trim[22]
*39 ext_trim[23]
*40 ext_trim[24]
*41 ext_trim[25]
*42 ext_trim[2]
*43 ext_trim[3]
*44 ext_trim[4]
*45 ext_trim[5]
*46 ext_trim[6]
*47 ext_trim[7]
*48 ext_trim[8]
*49 ext_trim[9]
*50 f_clk0_divider[0]
*51 f_clk0_divider[1]
*52 f_clk0_divider[2]
*53 f_clk0_divider[3]
*54 f_clk0_divider[4]
*55 f_clk1_divider[0]
*56 f_clk1_divider[1]
*57 f_clk1_divider[2]
*58 f_clk1_divider[3]
*59 f_clk1_divider[4]
*60 f_clk2_divider[0]
*61 f_clk2_divider[1]
*62 f_clk2_divider[2]
*63 f_clk2_divider[3]
*64 f_clk2_divider[4]
*65 f_osc_multiply_factor[0]
*66 f_osc_multiply_factor[1]
*67 f_osc_multiply_factor[2]
*68 f_osc_multiply_factor[3]
*69 f_osc_multiply_factor[4]
*70 mode_xor[0]
*71 mode_xor[1]
*72 mode_xor[2]
*73 osc
*74 osc_out
*75 resetb
*76 stable
*77 _000_
*78 _001_
*79 _002_
*80 _003_
*81 _004_
*82 _005_
*83 _006_
*84 _007_
*85 _008_
*86 _009_
*87 _010_
*88 _011_
*89 _012_
*90 _013_
*91 _014_
*92 _015_
*93 _016_
*94 _017_
*95 _018_
*96 _019_
*97 _020_
*98 _021_
*99 _022_
*100 _023_
*101 _024_
*102 _025_
*103 _026_
*104 _027_
*105 _028_
*106 _029_
*107 _030_
*108 _031_
*109 _032_
*110 _033_
*111 _034_
*112 _035_
*113 _036_
*114 _037_
*115 _038_
*116 _039_
*117 _040_
*118 _041_
*119 _042_
*120 _043_
*121 _044_
*122 _045_
*123 _046_
*124 _047_
*125 _048_
*126 _049_
*127 _050_
*128 _051_
*129 _052_
*130 _053_
*131 _054_
*132 _055_
*133 _056_
*134 _057_
*135 _058_
*136 _059_
*137 _060_
*138 _061_
*139 _062_
*140 _063_
*141 _064_
*142 _065_
*143 _066_
*144 _067_
*145 _068_
*146 _069_
*147 _070_
*148 _071_
*149 _072_
*150 _073_
*151 _074_
*152 _075_
*153 _076_
*154 _077_
*155 _078_
*156 _079_
*157 clk0_180_to_360_expand
*158 clk0_180_to_360_expand_regs
*159 clk0_int
*160 clk0_int_regs
*161 clk0_out_xor
*162 clk0_phase_sel_check_0_
*163 clk0_phase_sel_check_1_
*164 clk0_phase_sel_check_2_
*165 clk0_phase_sel_check_3_
*166 clk1_180_to_360_expand
*167 clk1_180_to_360_expand_regs
*168 clk1_int
*169 clk1_int_regs
*170 clk1_out_xor
*171 clk1_phase_sel_check_0_
*172 clk1_phase_sel_check_1_
*173 clk1_phase_sel_check_2_
*174 clk1_phase_sel_check_3_
*175 clk2_180_to_360_expand
*176 clk2_180_to_360_expand_regs
*177 clk2_int
*178 clk2_int_regs
*179 clk2_out_xor
*180 clk2_phase_sel_check_0_
*181 clk2_phase_sel_check_1_
*182 clk2_phase_sel_check_2_
*183 clk2_phase_sel_check_3_
*184 clknet_0_clk0_180_to_360_expand
*185 clknet_0_clk0_180_to_360_expand_regs
*186 clknet_0_clk0_int
*187 clknet_0_clk0_int_regs
*188 clknet_0_clk0_out_xor
*189 clknet_0_clk1_180_to_360_expand
*190 clknet_0_clk1_180_to_360_expand_regs
*191 clknet_0_clk1_int
*192 clknet_0_clk1_int_regs
*193 clknet_0_clk1_out_xor
*194 clknet_0_clk2_180_to_360_expand
*195 clknet_0_clk2_180_to_360_expand_regs
*196 clknet_0_clk2_int
*197 clknet_0_clk2_int_regs
*198 clknet_0_clk2_out_xor
*199 clknet_0_dll_clks_0_
*200 clknet_0_osc
*201 clknet_0_osc_regs
*202 clknet_0_u_digital_pll\/clockp_buffer_in_0_
*203 clknet_0_u_digital_pll\/clockp_buffer_in_0__regs
*204 clknet_1_0__leaf_clk0_180_to_360_expand
*205 clknet_1_0__leaf_clk0_180_to_360_expand_regs
*206 clknet_1_0__leaf_clk0_int
*207 clknet_1_0__leaf_clk0_out_xor
*208 clknet_1_0__leaf_clk1_180_to_360_expand
*209 clknet_1_0__leaf_clk1_180_to_360_expand_regs
*210 clknet_1_0__leaf_clk1_int
*211 clknet_1_0__leaf_clk1_out_xor
*212 clknet_1_0__leaf_clk2_180_to_360_expand
*213 clknet_1_0__leaf_clk2_180_to_360_expand_regs
*214 clknet_1_0__leaf_clk2_int
*215 clknet_1_0__leaf_clk2_out_xor
*216 clknet_1_0__leaf_dll_clks_0_
*217 clknet_1_0__leaf_osc
*218 clknet_1_0__leaf_osc_regs
*219 clknet_1_0__leaf_u_digital_pll\/clockp_buffer_in_0_
*220 clknet_1_1__leaf_clk0_180_to_360_expand_regs
*221 clknet_1_1__leaf_clk0_out_xor
*222 clknet_1_1__leaf_clk1_180_to_360_expand_regs
*223 clknet_1_1__leaf_clk1_out_xor
*224 clknet_1_1__leaf_clk2_180_to_360_expand_regs
*225 clknet_1_1__leaf_clk2_out_xor
*226 clknet_1_1__leaf_dll_clks_0_
*227 clknet_1_1__leaf_osc
*228 clknet_1_1__leaf_osc_regs
*229 clknet_2_0__leaf_u_digital_pll\/clockp_buffer_in_0__regs
*230 clknet_2_1__leaf_u_digital_pll\/clockp_buffer_in_0__regs
*231 clknet_2_2__leaf_u_digital_pll\/clockp_buffer_in_0__regs
*232 clknet_2_3__leaf_u_digital_pll\/clockp_buffer_in_0__regs
*233 clknet_3_0__leaf_clk0_int_regs
*234 clknet_3_0__leaf_clk1_int_regs
*235 clknet_3_0__leaf_clk2_int_regs
*236 clknet_3_1__leaf_clk0_int_regs
*237 clknet_3_1__leaf_clk1_int_regs
*238 clknet_3_1__leaf_clk2_int_regs
*239 clknet_3_2__leaf_clk0_int_regs
*240 clknet_3_2__leaf_clk1_int_regs
*241 clknet_3_2__leaf_clk2_int_regs
*242 clknet_3_3__leaf_clk0_int_regs
*243 clknet_3_3__leaf_clk1_int_regs
*244 clknet_3_3__leaf_clk2_int_regs
*245 clknet_3_4__leaf_clk0_int_regs
*246 clknet_3_4__leaf_clk1_int_regs
*247 clknet_3_4__leaf_clk2_int_regs
*248 clknet_3_5__leaf_clk0_int_regs
*249 clknet_3_5__leaf_clk1_int_regs
*250 clknet_3_5__leaf_clk2_int_regs
*251 clknet_3_6__leaf_clk0_int_regs
*252 clknet_3_6__leaf_clk1_int_regs
*253 clknet_3_6__leaf_clk2_int_regs
*254 clknet_3_7__leaf_clk0_int_regs
*255 clknet_3_7__leaf_clk1_int_regs
*256 clknet_3_7__leaf_clk2_int_regs
*257 delaynet_0_clk_oscillator
*258 delaynet_1_clk_oscillator
*259 delaynet_2_clk_oscillator
*260 delaynet_3_clk_oscillator
*261 delaynet_4_clk_oscillator
*262 delaynet_5_clk_oscillator
*263 delaynet_6_clk_oscillator
*264 delaynet_7_clk_oscillator
*265 dll_clks_0_
*266 dll_clks_10_
*267 dll_clks_11_
*268 dll_clks_12_
*269 dll_clks_1_
*270 dll_clks_2_
*271 dll_clks_3_
*272 dll_clks_4_
*273 dll_clks_5_
*274 dll_clks_6_
*275 dll_clks_7_
*276 dll_clks_8_
*277 dll_clks_9_
*278 dll_stable
*279 net
*280 net1
*281 net10
*282 net11
*283 net114
*284 net115
*285 net116
*286 net12
*287 net120
*288 net122
*289 net123
*290 net124
*291 net125
*292 net126
*293 net127
*294 net128
*295 net13
*296 net132
*297 net133
*298 net134
*299 net135
*300 net136
*301 net137
*302 net138
*303 net139
*304 net14
*305 net140
*306 net141
*307 net142
*308 net143
*309 net144
*310 net145
*311 net146
*312 net147
*313 net148
*314 net149
*315 net15
*316 net150
*317 net151
*318 net152
*319 net153
*320 net154
*321 net155
*322 net156
*323 net157
*324 net158
*325 net159
*326 net16
*327 net160
*328 net161
*329 net162
*330 net163
*331 net164
*332 net165
*333 net166
*334 net167
*335 net168
*336 net169
*337 net17
*338 net170
*339 net171
*340 net172
*341 net173
*342 net174
*343 net175
*344 net176
*345 net177
*346 net178
*347 net179
*348 net18
*349 net180
*350 net181
*351 net182
*352 net183
*353 net184
*354 net19
*355 net2
*356 net20
*357 net21
*358 net22
*359 net23
*360 net24
*361 net25
*362 net26
*363 net27
*364 net28
*365 net29
*366 net3
*367 net30
*368 net31
*369 net32
*370 net33
*371 net34
*372 net35
*373 net36
*374 net37
*375 net38
*376 net39
*377 net4
*378 net40
*379 net41
*380 net42
*381 net43
*382 net44
*383 net45
*384 net46
*385 net47
*386 net48
*387 net49
*388 net5
*389 net50
*390 net51
*391 net52
*392 net53
*393 net54
*394 net55
*395 net56
*396 net57
*397 net58
*398 net59
*399 net6
*400 net60
*401 net61
*402 net62
*403 net63
*404 net64
*405 net65
*406 net66
*407 net67
*408 net68
*409 net69
*410 net7
*411 net70
*412 net71
*413 net72
*414 net73
*415 net8
*416 net9
*417 osc_regs
*418 u_clk_div0/_00_
*419 u_clk_div0/_01_
*420 u_clk_div0/_02_
*421 u_clk_div0/_03_
*422 u_clk_div0/_04_
*423 u_clk_div0/_05_
*424 u_clk_div0/_06_
*425 u_clk_div0/_07_
*426 u_clk_div0/_08_
*427 u_clk_div0/enable_even
*428 u_clk_div0/enable_odd
*429 u_clk_div0/even_0/_00_
*430 u_clk_div0/even_0/_01_
*431 u_clk_div0/even_0/_02_
*432 u_clk_div0/even_0/_03_
*433 u_clk_div0/even_0/_04_
*434 u_clk_div0/even_0/_05_
*435 u_clk_div0/even_0/_06_
*436 u_clk_div0/even_0/_07_
*437 u_clk_div0/even_0/_08_
*438 u_clk_div0/even_0/_09_
*439 u_clk_div0/even_0/_10_
*440 u_clk_div0/even_0/_11_
*441 u_clk_div0/even_0/_12_
*442 u_clk_div0/even_0/_13_
*443 u_clk_div0/even_0/_14_
*444 u_clk_div0/even_0/_15_
*445 u_clk_div0/even_0/_16_
*446 u_clk_div0/even_0/_17_
*447 u_clk_div0/even_0/_18_
*448 u_clk_div0/even_0/_19_
*449 u_clk_div0/even_0/_20_
*450 u_clk_div0/even_0/_21_
*451 u_clk_div0/even_0/_22_
*452 u_clk_div0/even_0/_23_
*453 u_clk_div0/even_0/_24_
*454 u_clk_div0/even_0/_25_
*455 u_clk_div0/even_0/clk_delayed_0_
*456 u_clk_div0/even_0/clk_delayed_1_
*457 u_clk_div0/even_0/clk_delayed_2_
*458 u_clk_div0/even_0/counter_1_
*459 u_clk_div0/even_0/counter_2_
*460 u_clk_div0/even_0/counter_3_
*461 u_clk_div0/even_0/counter_4_
*462 u_clk_div0/even_0/out_counter
*463 u_clk_div0/even_0/out_counter_delayed_0_
*464 u_clk_div0/even_0/out_counter_delayed_1_
*465 u_clk_div0/even_0/out_counter_delayed_2_
*466 u_clk_div0/net131
*467 u_clk_div0/net74
*468 u_clk_div0/net77
*469 u_clk_div0/net78
*470 u_clk_div0/net79
*471 u_clk_div0/net80
*472 u_clk_div0/not_zero
*473 u_clk_div0/odd_0/_000_
*474 u_clk_div0/odd_0/_001_
*475 u_clk_div0/odd_0/_002_
*476 u_clk_div0/odd_0/_003_
*477 u_clk_div0/odd_0/_004_
*478 u_clk_div0/odd_0/_005_
*479 u_clk_div0/odd_0/_006_
*480 u_clk_div0/odd_0/_007_
*481 u_clk_div0/odd_0/_008_
*482 u_clk_div0/odd_0/_009_
*483 u_clk_div0/odd_0/_010_
*484 u_clk_div0/odd_0/_011_
*485 u_clk_div0/odd_0/_012_
*486 u_clk_div0/odd_0/_013_
*487 u_clk_div0/odd_0/_014_
*488 u_clk_div0/odd_0/_015_
*489 u_clk_div0/odd_0/_016_
*490 u_clk_div0/odd_0/_017_
*491 u_clk_div0/odd_0/_018_
*492 u_clk_div0/odd_0/_019_
*493 u_clk_div0/odd_0/_020_
*494 u_clk_div0/odd_0/_021_
*495 u_clk_div0/odd_0/_022_
*496 u_clk_div0/odd_0/_023_
*497 u_clk_div0/odd_0/_024_
*498 u_clk_div0/odd_0/_025_
*499 u_clk_div0/odd_0/_026_
*500 u_clk_div0/odd_0/_027_
*501 u_clk_div0/odd_0/_028_
*502 u_clk_div0/odd_0/_029_
*503 u_clk_div0/odd_0/_030_
*504 u_clk_div0/odd_0/_031_
*505 u_clk_div0/odd_0/_032_
*506 u_clk_div0/odd_0/_033_
*507 u_clk_div0/odd_0/_034_
*508 u_clk_div0/odd_0/_035_
*509 u_clk_div0/odd_0/_036_
*510 u_clk_div0/odd_0/_037_
*511 u_clk_div0/odd_0/_038_
*512 u_clk_div0/odd_0/_039_
*513 u_clk_div0/odd_0/_040_
*514 u_clk_div0/odd_0/_041_
*515 u_clk_div0/odd_0/_042_
*516 u_clk_div0/odd_0/_043_
*517 u_clk_div0/odd_0/_044_
*518 u_clk_div0/odd_0/_045_
*519 u_clk_div0/odd_0/_046_
*520 u_clk_div0/odd_0/_047_
*521 u_clk_div0/odd_0/_048_
*522 u_clk_div0/odd_0/_049_
*523 u_clk_div0/odd_0/_050_
*524 u_clk_div0/odd_0/_051_
*525 u_clk_div0/odd_0/_063_
*526 u_clk_div0/odd_0/_064_
*527 u_clk_div0/odd_0/_065_
*528 u_clk_div0/odd_0/_066_
*529 u_clk_div0/odd_0/_067_
*530 u_clk_div0/odd_0/_068_
*531 u_clk_div0/odd_0/_069_
*532 u_clk_div0/odd_0/_070_
*533 u_clk_div0/odd_0/_071_
*534 u_clk_div0/odd_0/_072_
*535 u_clk_div0/odd_0/_073_
*536 u_clk_div0/odd_0/_074_
*537 u_clk_div0/odd_0/_075_
*538 u_clk_div0/odd_0/_076_
*539 u_clk_div0/odd_0/_077_
*540 u_clk_div0/odd_0/_078_
*541 u_clk_div0/odd_0/_079_
*542 u_clk_div0/odd_0/_080_
*543 u_clk_div0/odd_0/_081_
*544 u_clk_div0/odd_0/_082_
*545 u_clk_div0/odd_0/_083_
*546 u_clk_div0/odd_0/_084_
*547 u_clk_div0/odd_0/_085_
*548 u_clk_div0/odd_0/_086_
*549 u_clk_div0/odd_0/_087_
*550 u_clk_div0/odd_0/_088_
*551 u_clk_div0/odd_0/_089_
*552 u_clk_div0/odd_0/_090_
*553 u_clk_div0/odd_0/_091_
*554 u_clk_div0/odd_0/_092_
*555 u_clk_div0/odd_0/_093_
*556 u_clk_div0/odd_0/_094_
*557 u_clk_div0/odd_0/_095_
*558 u_clk_div0/odd_0/_096_
*559 u_clk_div0/odd_0/_097_
*560 u_clk_div0/odd_0/_098_
*561 u_clk_div0/odd_0/_099_
*562 u_clk_div0/odd_0/_100_
*563 u_clk_div0/odd_0/_101_
*564 u_clk_div0/odd_0/_102_
*565 u_clk_div0/odd_0/_103_
*566 u_clk_div0/odd_0/_104_
*567 u_clk_div0/odd_0/_105_
*568 u_clk_div0/odd_0/_106_
*569 u_clk_div0/odd_0/_107_
*570 u_clk_div0/odd_0/_108_
*571 u_clk_div0/odd_0/_109_
*572 u_clk_div0/odd_0/_110_
*573 u_clk_div0/odd_0/_111_
*574 u_clk_div0/odd_0/_112_
*575 u_clk_div0/odd_0/_113_
*576 u_clk_div0/odd_0/_114_
*577 u_clk_div0/odd_0/_115_
*578 u_clk_div0/odd_0/_116_
*579 u_clk_div0/odd_0/_117_
*580 u_clk_div0/odd_0/_118_
*581 u_clk_div0/odd_0/_119_
*582 u_clk_div0/odd_0/_120_
*583 u_clk_div0/odd_0/_121_
*584 u_clk_div0/odd_0/_122_
*585 u_clk_div0/odd_0/counter2_0_
*586 u_clk_div0/odd_0/counter2_2_
*587 u_clk_div0/odd_0/counter2_3_
*588 u_clk_div0/odd_0/counter2_4_
*589 u_clk_div0/odd_0/counter_0_
*590 u_clk_div0/odd_0/counter_2_
*591 u_clk_div0/odd_0/counter_3_
*592 u_clk_div0/odd_0/counter_4_
*593 u_clk_div0/odd_0/initial_begin_0_
*594 u_clk_div0/odd_0/initial_begin_2_
*595 u_clk_div0/odd_0/initial_begin_3_
*596 u_clk_div0/odd_0/initial_begin_4_
*597 u_clk_div0/odd_0/net130
*598 u_clk_div0/odd_0/net90
*599 u_clk_div0/odd_0/net91
*600 u_clk_div0/odd_0/net92
*601 u_clk_div0/odd_0/old_N_0_
*602 u_clk_div0/odd_0/old_N_1_
*603 u_clk_div0/odd_0/old_N_2_
*604 u_clk_div0/odd_0/old_N_3_
*605 u_clk_div0/odd_0/old_N_4_
*606 u_clk_div0/odd_0/out_delayed_0_
*607 u_clk_div0/odd_0/out_pre
*608 u_clk_div0/odd_0/rst_pulse
*609 u_clk_div0/out_buf
*610 u_clk_div0/out_even
*611 u_clk_div0/out_odd
*612 u_clk_div0/syncN_0_
*613 u_clk_div0/syncN_1_
*614 u_clk_div0/syncN_2_
*615 u_clk_div0/syncN_3_
*616 u_clk_div0/syncN_4_
*617 u_clk_div0/syncNp_0_
*618 u_clk_div0/syncNp_2_
*619 u_clk_div0/syncNp_3_
*620 u_clk_div0/syncNp_4_
*621 u_clk_div1/_00_
*622 u_clk_div1/_01_
*623 u_clk_div1/_02_
*624 u_clk_div1/_03_
*625 u_clk_div1/_04_
*626 u_clk_div1/_05_
*627 u_clk_div1/_06_
*628 u_clk_div1/_07_
*629 u_clk_div1/_08_
*630 u_clk_div1/enable_even
*631 u_clk_div1/enable_odd
*632 u_clk_div1/even_0/_00_
*633 u_clk_div1/even_0/_01_
*634 u_clk_div1/even_0/_02_
*635 u_clk_div1/even_0/_03_
*636 u_clk_div1/even_0/_04_
*637 u_clk_div1/even_0/_05_
*638 u_clk_div1/even_0/_06_
*639 u_clk_div1/even_0/_07_
*640 u_clk_div1/even_0/_08_
*641 u_clk_div1/even_0/_09_
*642 u_clk_div1/even_0/_10_
*643 u_clk_div1/even_0/_11_
*644 u_clk_div1/even_0/_12_
*645 u_clk_div1/even_0/_13_
*646 u_clk_div1/even_0/_14_
*647 u_clk_div1/even_0/_15_
*648 u_clk_div1/even_0/_16_
*649 u_clk_div1/even_0/_17_
*650 u_clk_div1/even_0/_18_
*651 u_clk_div1/even_0/_19_
*652 u_clk_div1/even_0/_20_
*653 u_clk_div1/even_0/_21_
*654 u_clk_div1/even_0/_22_
*655 u_clk_div1/even_0/_23_
*656 u_clk_div1/even_0/_24_
*657 u_clk_div1/even_0/_25_
*658 u_clk_div1/even_0/clk_delayed_0_
*659 u_clk_div1/even_0/clk_delayed_1_
*660 u_clk_div1/even_0/clk_delayed_2_
*661 u_clk_div1/even_0/counter_1_
*662 u_clk_div1/even_0/counter_2_
*663 u_clk_div1/even_0/counter_3_
*664 u_clk_div1/even_0/counter_4_
*665 u_clk_div1/even_0/out_counter
*666 u_clk_div1/even_0/out_counter_delayed_0_
*667 u_clk_div1/even_0/out_counter_delayed_1_
*668 u_clk_div1/even_0/out_counter_delayed_2_
*669 u_clk_div1/net117
*670 u_clk_div1/net118
*671 u_clk_div1/net119
*672 u_clk_div1/net76
*673 u_clk_div1/net85
*674 u_clk_div1/net86
*675 u_clk_div1/net87
*676 u_clk_div1/net88
*677 u_clk_div1/not_zero
*678 u_clk_div1/odd_0/_000_
*679 u_clk_div1/odd_0/_001_
*680 u_clk_div1/odd_0/_002_
*681 u_clk_div1/odd_0/_003_
*682 u_clk_div1/odd_0/_004_
*683 u_clk_div1/odd_0/_005_
*684 u_clk_div1/odd_0/_006_
*685 u_clk_div1/odd_0/_007_
*686 u_clk_div1/odd_0/_008_
*687 u_clk_div1/odd_0/_009_
*688 u_clk_div1/odd_0/_010_
*689 u_clk_div1/odd_0/_011_
*690 u_clk_div1/odd_0/_012_
*691 u_clk_div1/odd_0/_013_
*692 u_clk_div1/odd_0/_014_
*693 u_clk_div1/odd_0/_015_
*694 u_clk_div1/odd_0/_016_
*695 u_clk_div1/odd_0/_017_
*696 u_clk_div1/odd_0/_018_
*697 u_clk_div1/odd_0/_019_
*698 u_clk_div1/odd_0/_020_
*699 u_clk_div1/odd_0/_021_
*700 u_clk_div1/odd_0/_022_
*701 u_clk_div1/odd_0/_023_
*702 u_clk_div1/odd_0/_024_
*703 u_clk_div1/odd_0/_025_
*704 u_clk_div1/odd_0/_026_
*705 u_clk_div1/odd_0/_027_
*706 u_clk_div1/odd_0/_028_
*707 u_clk_div1/odd_0/_029_
*708 u_clk_div1/odd_0/_030_
*709 u_clk_div1/odd_0/_031_
*710 u_clk_div1/odd_0/_032_
*711 u_clk_div1/odd_0/_033_
*712 u_clk_div1/odd_0/_034_
*713 u_clk_div1/odd_0/_035_
*714 u_clk_div1/odd_0/_036_
*715 u_clk_div1/odd_0/_037_
*716 u_clk_div1/odd_0/_038_
*717 u_clk_div1/odd_0/_039_
*718 u_clk_div1/odd_0/_040_
*719 u_clk_div1/odd_0/_041_
*720 u_clk_div1/odd_0/_042_
*721 u_clk_div1/odd_0/_043_
*722 u_clk_div1/odd_0/_044_
*723 u_clk_div1/odd_0/_045_
*724 u_clk_div1/odd_0/_046_
*725 u_clk_div1/odd_0/_047_
*726 u_clk_div1/odd_0/_048_
*727 u_clk_div1/odd_0/_049_
*728 u_clk_div1/odd_0/_050_
*729 u_clk_div1/odd_0/_051_
*730 u_clk_div1/odd_0/_063_
*731 u_clk_div1/odd_0/_064_
*732 u_clk_div1/odd_0/_065_
*733 u_clk_div1/odd_0/_066_
*734 u_clk_div1/odd_0/_067_
*735 u_clk_div1/odd_0/_068_
*736 u_clk_div1/odd_0/_069_
*737 u_clk_div1/odd_0/_070_
*738 u_clk_div1/odd_0/_071_
*739 u_clk_div1/odd_0/_072_
*740 u_clk_div1/odd_0/_073_
*741 u_clk_div1/odd_0/_074_
*742 u_clk_div1/odd_0/_075_
*743 u_clk_div1/odd_0/_076_
*744 u_clk_div1/odd_0/_077_
*745 u_clk_div1/odd_0/_078_
*746 u_clk_div1/odd_0/_079_
*747 u_clk_div1/odd_0/_080_
*748 u_clk_div1/odd_0/_081_
*749 u_clk_div1/odd_0/_082_
*750 u_clk_div1/odd_0/_083_
*751 u_clk_div1/odd_0/_084_
*752 u_clk_div1/odd_0/_085_
*753 u_clk_div1/odd_0/_086_
*754 u_clk_div1/odd_0/_087_
*755 u_clk_div1/odd_0/_088_
*756 u_clk_div1/odd_0/_089_
*757 u_clk_div1/odd_0/_090_
*758 u_clk_div1/odd_0/_091_
*759 u_clk_div1/odd_0/_092_
*760 u_clk_div1/odd_0/_093_
*761 u_clk_div1/odd_0/_094_
*762 u_clk_div1/odd_0/_095_
*763 u_clk_div1/odd_0/_096_
*764 u_clk_div1/odd_0/_097_
*765 u_clk_div1/odd_0/_098_
*766 u_clk_div1/odd_0/_099_
*767 u_clk_div1/odd_0/_100_
*768 u_clk_div1/odd_0/_101_
*769 u_clk_div1/odd_0/_102_
*770 u_clk_div1/odd_0/_103_
*771 u_clk_div1/odd_0/_104_
*772 u_clk_div1/odd_0/_105_
*773 u_clk_div1/odd_0/_106_
*774 u_clk_div1/odd_0/_107_
*775 u_clk_div1/odd_0/_108_
*776 u_clk_div1/odd_0/_109_
*777 u_clk_div1/odd_0/_110_
*778 u_clk_div1/odd_0/_111_
*779 u_clk_div1/odd_0/_112_
*780 u_clk_div1/odd_0/_113_
*781 u_clk_div1/odd_0/_114_
*782 u_clk_div1/odd_0/_115_
*783 u_clk_div1/odd_0/_116_
*784 u_clk_div1/odd_0/_117_
*785 u_clk_div1/odd_0/_118_
*786 u_clk_div1/odd_0/_119_
*787 u_clk_div1/odd_0/_120_
*788 u_clk_div1/odd_0/_121_
*789 u_clk_div1/odd_0/_122_
*790 u_clk_div1/odd_0/counter2_0_
*791 u_clk_div1/odd_0/counter2_2_
*792 u_clk_div1/odd_0/counter2_3_
*793 u_clk_div1/odd_0/counter2_4_
*794 u_clk_div1/odd_0/counter_0_
*795 u_clk_div1/odd_0/counter_2_
*796 u_clk_div1/odd_0/counter_3_
*797 u_clk_div1/odd_0/counter_4_
*798 u_clk_div1/odd_0/initial_begin_0_
*799 u_clk_div1/odd_0/initial_begin_2_
*800 u_clk_div1/odd_0/initial_begin_3_
*801 u_clk_div1/odd_0/initial_begin_4_
*802 u_clk_div1/odd_0/net96
*803 u_clk_div1/odd_0/net97
*804 u_clk_div1/odd_0/net98
*805 u_clk_div1/odd_0/old_N_0_
*806 u_clk_div1/odd_0/old_N_1_
*807 u_clk_div1/odd_0/old_N_2_
*808 u_clk_div1/odd_0/old_N_3_
*809 u_clk_div1/odd_0/old_N_4_
*810 u_clk_div1/odd_0/out_delayed_0_
*811 u_clk_div1/odd_0/out_pre
*812 u_clk_div1/odd_0/rst_pulse
*813 u_clk_div1/out_buf
*814 u_clk_div1/out_even
*815 u_clk_div1/out_odd
*816 u_clk_div1/syncN_0_
*817 u_clk_div1/syncN_1_
*818 u_clk_div1/syncN_2_
*819 u_clk_div1/syncN_3_
*820 u_clk_div1/syncN_4_
*821 u_clk_div1/syncNp_0_
*822 u_clk_div1/syncNp_2_
*823 u_clk_div1/syncNp_3_
*824 u_clk_div1/syncNp_4_
*825 u_clk_div2/_00_
*826 u_clk_div2/_01_
*827 u_clk_div2/_02_
*828 u_clk_div2/_03_
*829 u_clk_div2/_04_
*830 u_clk_div2/_05_
*831 u_clk_div2/_06_
*832 u_clk_div2/_07_
*833 u_clk_div2/_08_
*834 u_clk_div2/enable_even
*835 u_clk_div2/enable_odd
*836 u_clk_div2/even_0/_00_
*837 u_clk_div2/even_0/_01_
*838 u_clk_div2/even_0/_02_
*839 u_clk_div2/even_0/_03_
*840 u_clk_div2/even_0/_04_
*841 u_clk_div2/even_0/_05_
*842 u_clk_div2/even_0/_06_
*843 u_clk_div2/even_0/_07_
*844 u_clk_div2/even_0/_08_
*845 u_clk_div2/even_0/_09_
*846 u_clk_div2/even_0/_10_
*847 u_clk_div2/even_0/_11_
*848 u_clk_div2/even_0/_12_
*849 u_clk_div2/even_0/_13_
*850 u_clk_div2/even_0/_14_
*851 u_clk_div2/even_0/_15_
*852 u_clk_div2/even_0/_16_
*853 u_clk_div2/even_0/_17_
*854 u_clk_div2/even_0/_18_
*855 u_clk_div2/even_0/_19_
*856 u_clk_div2/even_0/_20_
*857 u_clk_div2/even_0/_21_
*858 u_clk_div2/even_0/_22_
*859 u_clk_div2/even_0/_23_
*860 u_clk_div2/even_0/_24_
*861 u_clk_div2/even_0/_25_
*862 u_clk_div2/even_0/clk_delayed_0_
*863 u_clk_div2/even_0/clk_delayed_1_
*864 u_clk_div2/even_0/clk_delayed_2_
*865 u_clk_div2/even_0/counter_1_
*866 u_clk_div2/even_0/counter_2_
*867 u_clk_div2/even_0/counter_3_
*868 u_clk_div2/even_0/counter_4_
*869 u_clk_div2/even_0/out_counter
*870 u_clk_div2/even_0/out_counter_delayed_0_
*871 u_clk_div2/even_0/out_counter_delayed_1_
*872 u_clk_div2/even_0/out_counter_delayed_2_
*873 u_clk_div2/net121
*874 u_clk_div2/net75
*875 u_clk_div2/net81
*876 u_clk_div2/net82
*877 u_clk_div2/net83
*878 u_clk_div2/net84
*879 u_clk_div2/not_zero
*880 u_clk_div2/odd_0/_000_
*881 u_clk_div2/odd_0/_001_
*882 u_clk_div2/odd_0/_002_
*883 u_clk_div2/odd_0/_003_
*884 u_clk_div2/odd_0/_004_
*885 u_clk_div2/odd_0/_005_
*886 u_clk_div2/odd_0/_006_
*887 u_clk_div2/odd_0/_007_
*888 u_clk_div2/odd_0/_008_
*889 u_clk_div2/odd_0/_009_
*890 u_clk_div2/odd_0/_010_
*891 u_clk_div2/odd_0/_011_
*892 u_clk_div2/odd_0/_012_
*893 u_clk_div2/odd_0/_013_
*894 u_clk_div2/odd_0/_014_
*895 u_clk_div2/odd_0/_015_
*896 u_clk_div2/odd_0/_016_
*897 u_clk_div2/odd_0/_017_
*898 u_clk_div2/odd_0/_018_
*899 u_clk_div2/odd_0/_019_
*900 u_clk_div2/odd_0/_020_
*901 u_clk_div2/odd_0/_021_
*902 u_clk_div2/odd_0/_022_
*903 u_clk_div2/odd_0/_023_
*904 u_clk_div2/odd_0/_024_
*905 u_clk_div2/odd_0/_025_
*906 u_clk_div2/odd_0/_026_
*907 u_clk_div2/odd_0/_027_
*908 u_clk_div2/odd_0/_028_
*909 u_clk_div2/odd_0/_029_
*910 u_clk_div2/odd_0/_030_
*911 u_clk_div2/odd_0/_031_
*912 u_clk_div2/odd_0/_032_
*913 u_clk_div2/odd_0/_033_
*914 u_clk_div2/odd_0/_034_
*915 u_clk_div2/odd_0/_035_
*916 u_clk_div2/odd_0/_036_
*917 u_clk_div2/odd_0/_037_
*918 u_clk_div2/odd_0/_038_
*919 u_clk_div2/odd_0/_039_
*920 u_clk_div2/odd_0/_040_
*921 u_clk_div2/odd_0/_041_
*922 u_clk_div2/odd_0/_042_
*923 u_clk_div2/odd_0/_043_
*924 u_clk_div2/odd_0/_044_
*925 u_clk_div2/odd_0/_045_
*926 u_clk_div2/odd_0/_046_
*927 u_clk_div2/odd_0/_047_
*928 u_clk_div2/odd_0/_048_
*929 u_clk_div2/odd_0/_049_
*930 u_clk_div2/odd_0/_050_
*931 u_clk_div2/odd_0/_051_
*932 u_clk_div2/odd_0/_063_
*933 u_clk_div2/odd_0/_064_
*934 u_clk_div2/odd_0/_065_
*935 u_clk_div2/odd_0/_066_
*936 u_clk_div2/odd_0/_067_
*937 u_clk_div2/odd_0/_068_
*938 u_clk_div2/odd_0/_069_
*939 u_clk_div2/odd_0/_070_
*940 u_clk_div2/odd_0/_071_
*941 u_clk_div2/odd_0/_072_
*942 u_clk_div2/odd_0/_073_
*943 u_clk_div2/odd_0/_074_
*944 u_clk_div2/odd_0/_075_
*945 u_clk_div2/odd_0/_076_
*946 u_clk_div2/odd_0/_077_
*947 u_clk_div2/odd_0/_078_
*948 u_clk_div2/odd_0/_079_
*949 u_clk_div2/odd_0/_080_
*950 u_clk_div2/odd_0/_081_
*951 u_clk_div2/odd_0/_082_
*952 u_clk_div2/odd_0/_083_
*953 u_clk_div2/odd_0/_084_
*954 u_clk_div2/odd_0/_085_
*955 u_clk_div2/odd_0/_086_
*956 u_clk_div2/odd_0/_087_
*957 u_clk_div2/odd_0/_088_
*958 u_clk_div2/odd_0/_089_
*959 u_clk_div2/odd_0/_090_
*960 u_clk_div2/odd_0/_091_
*961 u_clk_div2/odd_0/_092_
*962 u_clk_div2/odd_0/_093_
*963 u_clk_div2/odd_0/_094_
*964 u_clk_div2/odd_0/_095_
*965 u_clk_div2/odd_0/_096_
*966 u_clk_div2/odd_0/_097_
*967 u_clk_div2/odd_0/_098_
*968 u_clk_div2/odd_0/_099_
*969 u_clk_div2/odd_0/_100_
*970 u_clk_div2/odd_0/_101_
*971 u_clk_div2/odd_0/_102_
*972 u_clk_div2/odd_0/_103_
*973 u_clk_div2/odd_0/_104_
*974 u_clk_div2/odd_0/_105_
*975 u_clk_div2/odd_0/_106_
*976 u_clk_div2/odd_0/_107_
*977 u_clk_div2/odd_0/_108_
*978 u_clk_div2/odd_0/_109_
*979 u_clk_div2/odd_0/_110_
*980 u_clk_div2/odd_0/_111_
*981 u_clk_div2/odd_0/_112_
*982 u_clk_div2/odd_0/_113_
*983 u_clk_div2/odd_0/_114_
*984 u_clk_div2/odd_0/_115_
*985 u_clk_div2/odd_0/_116_
*986 u_clk_div2/odd_0/_117_
*987 u_clk_div2/odd_0/_118_
*988 u_clk_div2/odd_0/_119_
*989 u_clk_div2/odd_0/_120_
*990 u_clk_div2/odd_0/_121_
*991 u_clk_div2/odd_0/_122_
*992 u_clk_div2/odd_0/counter2_0_
*993 u_clk_div2/odd_0/counter2_2_
*994 u_clk_div2/odd_0/counter2_3_
*995 u_clk_div2/odd_0/counter2_4_
*996 u_clk_div2/odd_0/counter_0_
*997 u_clk_div2/odd_0/counter_2_
*998 u_clk_div2/odd_0/counter_3_
*999 u_clk_div2/odd_0/counter_4_
*1000 u_clk_div2/odd_0/initial_begin_0_
*1001 u_clk_div2/odd_0/initial_begin_2_
*1002 u_clk_div2/odd_0/initial_begin_3_
*1003 u_clk_div2/odd_0/initial_begin_4_
*1004 u_clk_div2/odd_0/net129
*1005 u_clk_div2/odd_0/net93
*1006 u_clk_div2/odd_0/net94
*1007 u_clk_div2/odd_0/net95
*1008 u_clk_div2/odd_0/old_N_0_
*1009 u_clk_div2/odd_0/old_N_1_
*1010 u_clk_div2/odd_0/old_N_2_
*1011 u_clk_div2/odd_0/old_N_3_
*1012 u_clk_div2/odd_0/old_N_4_
*1013 u_clk_div2/odd_0/out_delayed_0_
*1014 u_clk_div2/odd_0/out_pre
*1015 u_clk_div2/odd_0/rst_pulse
*1016 u_clk_div2/out_buf
*1017 u_clk_div2/out_even
*1018 u_clk_div2/out_odd
*1019 u_clk_div2/syncN_0_
*1020 u_clk_div2/syncN_1_
*1021 u_clk_div2/syncN_2_
*1022 u_clk_div2/syncN_3_
*1023 u_clk_div2/syncN_4_
*1024 u_clk_div2/syncNp_0_
*1025 u_clk_div2/syncNp_2_
*1026 u_clk_div2/syncNp_3_
*1027 u_clk_div2/syncNp_4_
*1028 u_clk_mux0/_00_
*1029 u_clk_mux0/_01_
*1030 u_clk_mux0/_02_
*1031 u_clk_mux0/_03_
*1032 u_clk_mux0/_04_
*1033 u_clk_mux0/_05_
*1034 u_clk_mux0/clk_pre
*1035 u_clk_mux0/one_hot_sel_0_
*1036 u_clk_mux0/one_hot_sel_10_
*1037 u_clk_mux0/one_hot_sel_11_
*1038 u_clk_mux0/one_hot_sel_12_
*1039 u_clk_mux0/one_hot_sel_1_
*1040 u_clk_mux0/one_hot_sel_2_
*1041 u_clk_mux0/one_hot_sel_3_
*1042 u_clk_mux0/one_hot_sel_4_
*1043 u_clk_mux0/one_hot_sel_5_
*1044 u_clk_mux0/one_hot_sel_6_
*1045 u_clk_mux0/one_hot_sel_7_
*1046 u_clk_mux0/one_hot_sel_8_
*1047 u_clk_mux0/one_hot_sel_9_
*1048 u_clk_mux0_inv/clk_pre
*1049 u_clk_mux0_inv/one_hot_sel_1_
*1050 u_clk_mux0_xor/clk_pre
*1051 u_clk_mux0_xor/clk_pre_xor
*1052 u_clk_mux0_xor/clk_pre_xor_const
*1053 u_clk_mux0_xor/one_hot_sel_1_
*1054 u_clk_mux0_xor/u_clkbuf_cap/X
*1055 u_clk_mux1/_00_
*1056 u_clk_mux1/_01_
*1057 u_clk_mux1/_02_
*1058 u_clk_mux1/_03_
*1059 u_clk_mux1/_04_
*1060 u_clk_mux1/_05_
*1061 u_clk_mux1/clk_pre
*1062 u_clk_mux1/one_hot_sel_0_
*1063 u_clk_mux1/one_hot_sel_10_
*1064 u_clk_mux1/one_hot_sel_11_
*1065 u_clk_mux1/one_hot_sel_12_
*1066 u_clk_mux1/one_hot_sel_1_
*1067 u_clk_mux1/one_hot_sel_2_
*1068 u_clk_mux1/one_hot_sel_3_
*1069 u_clk_mux1/one_hot_sel_4_
*1070 u_clk_mux1/one_hot_sel_5_
*1071 u_clk_mux1/one_hot_sel_6_
*1072 u_clk_mux1/one_hot_sel_7_
*1073 u_clk_mux1/one_hot_sel_8_
*1074 u_clk_mux1/one_hot_sel_9_
*1075 u_clk_mux1_inv/clk_pre
*1076 u_clk_mux1_inv/one_hot_sel_1_
*1077 u_clk_mux1_xor/clk_pre
*1078 u_clk_mux1_xor/clk_pre_xor
*1079 u_clk_mux1_xor/clk_pre_xor_const
*1080 u_clk_mux1_xor/one_hot_sel_1_
*1081 u_clk_mux1_xor/u_clkbuf_cap/X
*1082 u_clk_mux2/_00_
*1083 u_clk_mux2/_01_
*1084 u_clk_mux2/_02_
*1085 u_clk_mux2/_03_
*1086 u_clk_mux2/_04_
*1087 u_clk_mux2/_05_
*1088 u_clk_mux2/clk_pre
*1089 u_clk_mux2/one_hot_sel_0_
*1090 u_clk_mux2/one_hot_sel_10_
*1091 u_clk_mux2/one_hot_sel_11_
*1092 u_clk_mux2/one_hot_sel_12_
*1093 u_clk_mux2/one_hot_sel_1_
*1094 u_clk_mux2/one_hot_sel_2_
*1095 u_clk_mux2/one_hot_sel_3_
*1096 u_clk_mux2/one_hot_sel_4_
*1097 u_clk_mux2/one_hot_sel_5_
*1098 u_clk_mux2/one_hot_sel_6_
*1099 u_clk_mux2/one_hot_sel_7_
*1100 u_clk_mux2/one_hot_sel_8_
*1101 u_clk_mux2/one_hot_sel_9_
*1102 u_clk_mux2_inv/clk_pre
*1103 u_clk_mux2_inv/one_hot_sel_1_
*1104 u_clk_mux2_xor/clk_pre
*1105 u_clk_mux2_xor/clk_pre_xor
*1106 u_clk_mux2_xor/clk_pre_xor_const
*1107 u_clk_mux2_xor/one_hot_sel_1_
*1108 u_clk_mux2_xor/u_clkbuf_cap/X
*1109 u_digital_pll/_00_
*1110 u_digital_pll/_01_
*1111 u_digital_pll/_02_
*1112 u_digital_pll/_03_
*1113 u_digital_pll/_04_
*1114 u_digital_pll/_05_
*1115 u_digital_pll/_06_
*1116 u_digital_pll/_07_
*1117 u_digital_pll/_08_
*1118 u_digital_pll/_09_
*1119 u_digital_pll/_10_
*1120 u_digital_pll/_11_
*1121 u_digital_pll/_12_
*1122 u_digital_pll/_13_
*1123 u_digital_pll/_14_
*1124 u_digital_pll/_15_
*1125 u_digital_pll/_16_
*1126 u_digital_pll/_17_
*1127 u_digital_pll/clockp_buffer_in_0_
*1128 u_digital_pll/clockp_buffer_in_10_
*1129 u_digital_pll/clockp_buffer_in_11_
*1130 u_digital_pll/clockp_buffer_in_12_
*1131 u_digital_pll/clockp_buffer_in_1_
*1132 u_digital_pll/clockp_buffer_in_2_
*1133 u_digital_pll/clockp_buffer_in_3_
*1134 u_digital_pll/clockp_buffer_in_4_
*1135 u_digital_pll/clockp_buffer_in_5_
*1136 u_digital_pll/clockp_buffer_in_6_
*1137 u_digital_pll/clockp_buffer_in_7_
*1138 u_digital_pll/clockp_buffer_in_8_
*1139 u_digital_pll/clockp_buffer_in_9_
*1140 u_digital_pll/creset
*1141 u_digital_pll/ireset
*1142 u_digital_pll/itrim_0_
*1143 u_digital_pll/itrim_10_
*1144 u_digital_pll/itrim_11_
*1145 u_digital_pll/itrim_12_
*1146 u_digital_pll/itrim_13_
*1147 u_digital_pll/itrim_14_
*1148 u_digital_pll/itrim_15_
*1149 u_digital_pll/itrim_16_
*1150 u_digital_pll/itrim_17_
*1151 u_digital_pll/itrim_18_
*1152 u_digital_pll/itrim_19_
*1153 u_digital_pll/itrim_1_
*1154 u_digital_pll/itrim_20_
*1155 u_digital_pll/itrim_21_
*1156 u_digital_pll/itrim_22_
*1157 u_digital_pll/itrim_23_
*1158 u_digital_pll/itrim_24_
*1159 u_digital_pll/itrim_25_
*1160 u_digital_pll/itrim_2_
*1161 u_digital_pll/itrim_3_
*1162 u_digital_pll/itrim_4_
*1163 u_digital_pll/itrim_5_
*1164 u_digital_pll/itrim_6_
*1165 u_digital_pll/itrim_7_
*1166 u_digital_pll/itrim_8_
*1167 u_digital_pll/itrim_9_
*1168 u_digital_pll/net109
*1169 u_digital_pll/net110
*1170 u_digital_pll/net111
*1171 u_digital_pll/net112
*1172 u_digital_pll/net113
*1173 u_digital_pll/otrim_0_
*1174 u_digital_pll/otrim_10_
*1175 u_digital_pll/otrim_11_
*1176 u_digital_pll/otrim_12_
*1177 u_digital_pll/otrim_13_