*SPEF "ieee 1481-1999"
*DESIGN "custom_cells"
*DATE "03:51:10 Saturday February 21, 2026"
*VENDOR "The OpenROAD Project"
*PROGRAM "OpenROAD"
*VERSION "dfc4f595dfb2e1c346492ff1f0274abb28725acf"
*DESIGN_FLOW "NAME_SCOPE LOCAL" "PIN_CAP NONE"
*DIVIDER /
*DELIMITER :
*BUS_DELIMITER []
*T_UNIT 1 NS
*C_UNIT 1 PF
*R_UNIT 1 OHM
*L_UNIT 1 HENRY

*NAME_MAP
*3 a
*4 b
*5 clk
*6 sel
*7 y
*8 z
*9 clknet_0_clk
*10 clknet_1_0__leaf_clk
*11 clknet_1_1__leaf_clk
*12 mux0_pre
*13 mux1_pre
*14 net
*15 net1
*16 net2
*17 net3
*18 net4
*19 net5
*20 net6
*21 FILLER_0_0
*22 FILLER_0_14
*23 FILLER_0_21
*24 FILLER_0_28
*25 FILLER_0_35
*26 FILLER_0_42
*27 FILLER_0_7
*28 FILLER_1_0
*29 FILLER_1_14
*30 FILLER_1_21
*31 FILLER_1_28
*32 FILLER_1_35
*33 FILLER_1_42
*34 FILLER_1_49
*35 FILLER_1_56
*36 FILLER_1_63
*37 FILLER_1_7
*38 FILLER_1_70
*39 FILLER_2_0
*40 FILLER_2_14
*41 FILLER_2_18
*42 FILLER_2_29
*43 FILLER_2_36
*44 FILLER_2_43
*45 FILLER_2_50
*46 FILLER_2_57
*47 FILLER_2_64
*48 FILLER_2_7
*49 FILLER_3_11
*50 FILLER_3_18
*51 FILLER_3_29
*52 FILLER_3_4
*53 FILLER_3_60
*54 FILLER_3_67
*55 FILLER_4_15
*56 FILLER_4_22
*57 FILLER_4_60
*58 FILLER_4_62
*59 FILLER_4_8
*60 FILLER_5_0
*61 FILLER_5_14
*62 FILLER_5_21
*63 FILLER_5_28
*64 FILLER_5_35
*65 FILLER_5_37
*66 FILLER_5_42
*67 FILLER_5_7
*68 FILLER_6_0
*69 FILLER_6_14
*70 FILLER_6_21
*71 FILLER_6_28
*72 FILLER_6_35
*73 FILLER_6_42
*74 FILLER_6_49
*75 FILLER_6_56
*76 FILLER_6_63
*77 FILLER_6_7
*78 FILLER_6_70
*79 FILLER_7_0
*80 FILLER_7_14
*81 FILLER_7_21
*82 FILLER_7_28
*83 FILLER_7_35
*84 FILLER_7_42
*85 FILLER_7_7
*86 _2_
*87 _3_
*88 _4_
*89 _4__6
*90 _5_
*91 _5__7
*92 clkbuf_0_clk
*93 clkbuf_1_0__f_clk
*94 clkbuf_1_1__f_clk
*95 input1
*96 input2
*97 input3
*98 output4
*99 output5

*PORTS
a I
b I
clk I
sel I
y O
z O

*D_NET *3 0.000436205
*CONN
*P a I
*I *95:A I *D sg13g2_buf_1
*CAP
1 a 0.000218102
2 *95:A 0.000218102
*RES
1 a *95:A 41.9982 
*END

*D_NET *4 0.000986435
*CONN
*P b I
*I *96:A I *D sg13g2_buf_1
*CAP
1 b 0.000493218
2 *96:A 0.000493218
3 *96:A *97:A 0
4 *96:A *17:10 0
*RES
1 b *96:A 44.2848 
*END

*D_NET *5 0.0011132
*CONN
*P clk I
*I *92:A I *D sg13g2_buf_16
*CAP
1 clk 0.000405205
2 *92:A 0.000151395
3 *5:10 0.0005566
4 *92:A *9:33 0
5 *5:10 y 0
6 *5:10 *98:A 0
7 *5:10 *9:17 0
*RES
1 clk *5:10 23.9861 
2 *5:10 *92:A 21.8128 
*END

*D_NET *6 0.000607476
*CONN
*P sel I
*I *97:A I *D sg13g2_buf_1
*CAP
1 sel 0.000303738
2 *97:A 0.000303738
3 *97:A *17:10 0
4 *96:A *97:A 0
*RES
1 sel *97:A 42.8634 
*END

*D_NET *7 0.000767246
*CONN
*P y O
*I *98:X O *D sg13g2_buf_1
*CAP
1 y 0.000383623
2 *98:X 0.000383623
3 y *98:A 0
4 *5:10 y 0
*RES
1 *98:X y 43.3063 
*END

*D_NET *8 0.000383558
*CONN
*P z O
*I *99:X O *D sg13g2_buf_1
*CAP
1 z 0.000191779
2 *99:X 0.000191779
*RES
1 *99:X z 41.7819 
*END

*D_NET *9 0.00357846
*CONN
*I *94:A I *D sg13g2_buf_16
*I *93:A I *D sg13g2_buf_16
*I *92:X O *D sg13g2_buf_16
*CAP
1 *94:A 0.000106163
2 *93:A 8.25673e-05
3 *92:X 0
4 *9:33 0.000557703
5 *9:17 0.001008
6 *9:11 0.0016005
7 *9:6 0.000223526
8 *9:11 *11:10 0
9 *9:11 *19:8 0
10 *9:17 *98:A 0
11 *9:17 *11:10 0
12 *9:33 *19:8 0
13 *92:A *9:33 0
14 *5:10 *9:17 0
*RES
1 *92:X *9:6 40 
2 *9:6 *9:11 2.575 
3 *9:11 *9:17 30.0502 
4 *9:17 *93:A 21.0429 
5 *9:11 *9:33 25.1191 
6 *9:33 *94:A 21.3184 
*END

*D_NET *10 0.0010271
*CONN
*I *88:CLK I *D sg13g2_dfrbpq_1
*I *93:X O *D sg13g2_buf_16
*CAP
1 *88:CLK 0.000513551
2 *93:X 0.000513551
*RES
1 *93:X *88:CLK 45.8607 
*END

*D_NET *11 0.00136732
*CONN
*I *90:CLK I *D sg13g2_dfrbpq_1
*I *94:X O *D sg13g2_buf_16
*CAP
1 *90:CLK 0
2 *94:X 0.000683658
3 *11:10 0.000683658
4 *9:11 *11:10 0
5 *9:17 *11:10 0
*RES
1 *94:X *11:10 47.7765 
2 *11:10 *90:CLK 40 
*END

*D_NET *12 0.000441018
*CONN
*I *88:D I *D sg13g2_dfrbpq_1
*I *86:X O *D sg13g2_mux2_1
*CAP
1 *88:D 0.000180703
2 *86:X 0.000180703
3 *88:D *90:D 7.96112e-05
*RES
1 *86:X *88:D 42.1218 
*END

*D_NET *13 0.00126054
*CONN
*I *90:D I *D sg13g2_dfrbpq_1
*I *87:X O *D sg13g2_mux2_1
*CAP
1 *90:D 0.000470089
2 *87:X 0.000470089
3 *90:D *88:RESET_B 0.000240752
4 *88:D *90:D 7.96112e-05
*RES
1 *87:X *90:D 45.3148 
*END

*D_NET *14 0.000924088
*CONN
*I *88:RESET_B I *D sg13g2_dfrbpq_1
*I *89:L_HI O *D sg13g2_tiehi
*CAP
1 *88:RESET_B 0.000341668
2 *89:L_HI 0.000341668
3 *88:RESET_B *90:RESET_B 0
4 *90:D *88:RESET_B 0.000240752
*RES
1 *89:L_HI *88:RESET_B 44.0582 
*END

*D_NET *15 0.00212587
*CONN
*I *86:A0 I *D sg13g2_mux2_1
*I *87:A1 I *D sg13g2_mux2_1
*I *95:X O *D sg13g2_buf_1
*CAP
1 *86:A0 9.24829e-05
2 *87:A1 0.000284657
3 *95:X 0.000540761
4 *15:10 0.00037714
5 *15:8 0.000540761
6 *86:A0 *87:A0 1.54008e-05
7 *87:A1 *87:A0 0.00027467
8 *87:A1 *87:S 0
*RES
1 *95:X *15:8 45.047 
2 *15:8 *15:10 20 
3 *15:10 *87:A1 23.1827 
4 *15:10 *86:A0 20.8858 
*END

*D_NET *16 0.00180168
*CONN
*I *86:A1 I *D sg13g2_mux2_1
*I *87:A0 I *D sg13g2_mux2_1
*I *96:X O *D sg13g2_buf_1
*CAP
1 *86:A1 0
2 *87:A0 0.000250038
3 *96:X 0.000355384
4 *16:16 0.000400419
5 *16:8 0.000505765
6 *86:A0 *87:A0 1.54008e-05
7 *87:A1 *87:A0 0.00027467
*RES
1 *96:X *16:8 44.3054 
2 *16:8 *16:16 21.6377 
3 *16:16 *87:A0 22.9355 
4 *16:16 *86:A1 20 
*END

*D_NET *17 0.00185358
*CONN
*I *86:S I *D sg13g2_mux2_1
*I *87:S I *D sg13g2_mux2_1
*I *97:X O *D sg13g2_buf_1
*CAP
1 *86:S 0
2 *87:S 0.000247339
3 *97:X 0.000679449
4 *17:12 0.000247339
5 *17:10 0.000679449
6 *87:A1 *87:S 0
7 *96:A *17:10 0
8 *97:A *17:10 0
*RES
1 *97:X *17:10 45.9534 
2 *17:10 *17:12 20 
3 *17:12 *87:S 22.266 
4 *17:12 *86:S 20 
*END

*D_NET *18 0.000626525
*CONN
*I *98:A I *D sg13g2_buf_1
*I *88:Q O *D sg13g2_dfrbpq_1
*CAP
1 *98:A 0.000187951
2 *88:Q 0.000125312
3 *18:8 0.000313262
4 y *98:A 0
5 *5:10 *98:A 0
6 *9:17 *98:A 0
*RES
1 *88:Q *18:8 41.339 
2 *18:8 *98:A 41.6171 
*END

*D_NET *19 0.00041521
*CONN
*I *99:A I *D sg13g2_buf_1
*I *90:Q O *D sg13g2_dfrbpq_1
*CAP
1 *99:A 0
2 *90:Q 0.000207605
3 *19:8 0.000207605
4 *9:11 *19:8 0
5 *9:33 *19:8 0
*RES
1 *90:Q *19:8 42.3278 
2 *19:8 *99:A 40 
*END

*D_NET *20 0.000399815
*CONN
*I *90:RESET_B I *D sg13g2_dfrbpq_1
*I *91:L_HI O *D sg13g2_tiehi
*CAP
1 *90:RESET_B 0.000199907
2 *91:L_HI 0.000199907
3 *88:RESET_B *90:RESET_B 0
*RES
1 *91:L_HI *90:RESET_B 42.1836 
*END
