*SPEF "ieee 1481-1999"
*DESIGN "adc"
*DATE "03:52:19 Saturday February 21, 2026"
*VENDOR "The OpenROAD Project"
*PROGRAM "OpenROAD"
*VERSION "dfc4f595dfb2e1c346492ff1f0274abb28725acf"
*DESIGN_FLOW "NAME_SCOPE LOCAL" "PIN_CAP NONE"
*DIVIDER /
*DELIMITER :
*BUS_DELIMITER []
*T_UNIT 1 NS
*C_UNIT 1 PF
*R_UNIT 1 OHM
*L_UNIT 1 HENRY

*NAME_MAP
*3 analog_in[0]
*4 analog_in[1]
*5 analog_in[2]
*6 analog_in[3]
*7 analog_in[4]
*8 analog_in[5]
*9 analog_in[6]
*10 analog_in[7]
*11 clk
*12 data_out[0]
*13 data_out[1]
*14 data_out[2]
*15 data_out[3]
*16 data_out[4]
*17 data_out[5]
*18 data_out[6]
*19 data_out[7]
*20 ready
*21 start
*22 _00_
*23 _01_
*24 _02_
*25 _03_
*26 _04_
*27 _05_
*28 _06_
*29 _07_
*30 clknet_0_clk
*31 clknet_1_0__leaf_clk
*32 clknet_1_1__leaf_clk
*33 net
*34 net1
*35 net10
*36 net11
*37 net12
*38 net13
*39 net14
*40 net15
*41 net16
*42 net17
*43 net18
*44 net19
*45 net2
*46 net20
*47 net21
*48 net22
*49 net23
*50 net24
*51 net25
*52 net26
*53 net27
*54 net28
*55 net29
*56 net3
*57 net30
*58 net31
*59 net32
*60 net33
*61 net34
*62 net35
*63 net4
*64 net5
*65 net6
*66 net7
*67 net8
*68 net9
*69 FILLER_0_0
*70 FILLER_0_105
*71 FILLER_0_112
*72 FILLER_0_119
*73 FILLER_0_126
*74 FILLER_0_133
*75 FILLER_0_14
*76 FILLER_0_140
*77 FILLER_0_147
*78 FILLER_0_21
*79 FILLER_0_28
*80 FILLER_0_35
*81 FILLER_0_42
*82 FILLER_0_44
*83 FILLER_0_53
*84 FILLER_0_60
*85 FILLER_0_62
*86 FILLER_0_7
*87 FILLER_0_71
*88 FILLER_0_78
*89 FILLER_0_85
*90 FILLER_0_92
*91 FILLER_0_99
*92 FILLER_10_0
*93 FILLER_10_101
*94 FILLER_10_108
*95 FILLER_10_115
*96 FILLER_10_123
*97 FILLER_10_130
*98 FILLER_10_137
*99 FILLER_10_14
*100 FILLER_10_144
*101 FILLER_10_148
*102 FILLER_10_31
*103 FILLER_10_35
*104 FILLER_10_45
*105 FILLER_10_52
*106 FILLER_10_59
*107 FILLER_10_66
*108 FILLER_10_7
*109 FILLER_10_73
*110 FILLER_10_80
*111 FILLER_10_87
*112 FILLER_10_94
*113 FILLER_11_103
*114 FILLER_11_110
*115 FILLER_11_117
*116 FILLER_11_124
*117 FILLER_11_131
*118 FILLER_11_138
*119 FILLER_11_145
*120 FILLER_11_15
*121 FILLER_11_152
*122 FILLER_11_19
*123 FILLER_11_47
*124 FILLER_11_54
*125 FILLER_11_61
*126 FILLER_11_68
*127 FILLER_11_75
*128 FILLER_11_8
*129 FILLER_11_82
*130 FILLER_11_89
*131 FILLER_11_96
*132 FILLER_12_0
*133 FILLER_12_106
*134 FILLER_12_117
*135 FILLER_12_124
*136 FILLER_12_131
*137 FILLER_12_138
*138 FILLER_12_14
*139 FILLER_12_145
*140 FILLER_12_152
*141 FILLER_12_21
*142 FILLER_12_29
*143 FILLER_12_36
*144 FILLER_12_43
*145 FILLER_12_50
*146 FILLER_12_57
*147 FILLER_12_64
*148 FILLER_12_7
*149 FILLER_12_71
*150 FILLER_12_78
*151 FILLER_12_85
*152 FILLER_12_92
*153 FILLER_12_99
*154 FILLER_13_11
*155 FILLER_13_135
*156 FILLER_13_142
*157 FILLER_13_149
*158 FILLER_13_18
*159 FILLER_13_25
*160 FILLER_13_27
*161 FILLER_13_38
*162 FILLER_13_4
*163 FILLER_13_46
*164 FILLER_13_57
*165 FILLER_13_64
*166 FILLER_13_71
*167 FILLER_13_78
*168 FILLER_13_85
*169 FILLER_13_92
*170 FILLER_13_96
*171 FILLER_14_11
*172 FILLER_14_113
*173 FILLER_14_117
*174 FILLER_14_127
*175 FILLER_14_134
*176 FILLER_14_141
*177 FILLER_14_148
*178 FILLER_14_152
*179 FILLER_14_18
*180 FILLER_14_25
*181 FILLER_14_33
*182 FILLER_14_4
*183 FILLER_14_64
*184 FILLER_14_71
*185 FILLER_15_0
*186 FILLER_15_127
*187 FILLER_15_134
*188 FILLER_15_14
*189 FILLER_15_141
*190 FILLER_15_148
*191 FILLER_15_152
*192 FILLER_15_21
*193 FILLER_15_28
*194 FILLER_15_35
*195 FILLER_15_42
*196 FILLER_15_49
*197 FILLER_15_56
*198 FILLER_15_63
*199 FILLER_15_7
*200 FILLER_15_70
*201 FILLER_15_77
*202 FILLER_15_84
*203 FILLER_16_0
*204 FILLER_16_100
*205 FILLER_16_107
*206 FILLER_16_114
*207 FILLER_16_121
*208 FILLER_16_128
*209 FILLER_16_135
*210 FILLER_16_14
*211 FILLER_16_142
*212 FILLER_16_149
*213 FILLER_16_153
*214 FILLER_16_21
*215 FILLER_16_28
*216 FILLER_16_35
*217 FILLER_16_42
*218 FILLER_16_49
*219 FILLER_16_56
*220 FILLER_16_63
*221 FILLER_16_7
*222 FILLER_16_70
*223 FILLER_16_77
*224 FILLER_16_84
*225 FILLER_16_91
*226 FILLER_16_95
*227 FILLER_17_0
*228 FILLER_17_105
*229 FILLER_17_112
*230 FILLER_17_119
*231 FILLER_17_126
*232 FILLER_17_133
*233 FILLER_17_14
*234 FILLER_17_140
*235 FILLER_17_147
*236 FILLER_17_21
*237 FILLER_17_28
*238 FILLER_17_35
*239 FILLER_17_42
*240 FILLER_17_49
*241 FILLER_17_56
*242 FILLER_17_63
*243 FILLER_17_7
*244 FILLER_17_70
*245 FILLER_17_77
*246 FILLER_17_84
*247 FILLER_17_91
*248 FILLER_17_98
*249 FILLER_18_0
*250 FILLER_18_105
*251 FILLER_18_112
*252 FILLER_18_117
*253 FILLER_18_124
*254 FILLER_18_131
*255 FILLER_18_138
*256 FILLER_18_14
*257 FILLER_18_145
*258 FILLER_18_152
*259 FILLER_18_21
*260 FILLER_18_28
*261 FILLER_18_35
*262 FILLER_18_42
*263 FILLER_18_49
*264 FILLER_18_56
*265 FILLER_18_63
*266 FILLER_18_69
*267 FILLER_18_7
*268 FILLER_18_76
*269 FILLER_18_83
*270 FILLER_18_90
*271 FILLER_1_0
*272 FILLER_1_102
*273 FILLER_1_109
*274 FILLER_1_116
*275 FILLER_1_123
*276 FILLER_1_130
*277 FILLER_1_137
*278 FILLER_1_14
*279 FILLER_1_144
*280 FILLER_1_151
*281 FILLER_1_153
*282 FILLER_1_21
*283 FILLER_1_28
*284 FILLER_1_35
*285 FILLER_1_42
*286 FILLER_1_49
*287 FILLER_1_56
*288 FILLER_1_67
*289 FILLER_1_7
*290 FILLER_1_74
*291 FILLER_1_81
*292 FILLER_1_88
*293 FILLER_1_95
*294 FILLER_2_0
*295 FILLER_2_105
*296 FILLER_2_112
*297 FILLER_2_119
*298 FILLER_2_126
*299 FILLER_2_133
*300 FILLER_2_14
*301 FILLER_2_140
*302 FILLER_2_147
*303 FILLER_2_21
*304 FILLER_2_28
*305 FILLER_2_35
*306 FILLER_2_42
*307 FILLER_2_7
*308 FILLER_2_70
*309 FILLER_2_77
*310 FILLER_2_84
*311 FILLER_2_91
*312 FILLER_2_98
*313 FILLER_3_0
*314 FILLER_3_105
*315 FILLER_3_112
*316 FILLER_3_119
*317 FILLER_3_126
*318 FILLER_3_133
*319 FILLER_3_14
*320 FILLER_3_140
*321 FILLER_3_147
*322 FILLER_3_21
*323 FILLER_3_28
*324 FILLER_3_35
*325 FILLER_3_52
*326 FILLER_3_7
*327 FILLER_3_84
*328 FILLER_3_91
*329 FILLER_3_98
*330 FILLER_4_0
*331 FILLER_4_100
*332 FILLER_4_112
*333 FILLER_4_118
*334 FILLER_4_120
*335 FILLER_4_130
*336 FILLER_4_137
*337 FILLER_4_14
*338 FILLER_4_144
*339 FILLER_4_151
*340 FILLER_4_153
*341 FILLER_4_21
*342 FILLER_4_28
*343 FILLER_4_35
*344 FILLER_4_42
*345 FILLER_4_46
*346 FILLER_4_52
*347 FILLER_4_56
*348 FILLER_4_68
*349 FILLER_4_7
*350 FILLER_4_72
*351 FILLER_4_82
*352 FILLER_4_89
*353 FILLER_4_96
*354 FILLER_5_0
*355 FILLER_5_105
*356 FILLER_5_136
*357 FILLER_5_14
*358 FILLER_5_143
*359 FILLER_5_150
*360 FILLER_5_21
*361 FILLER_5_28
*362 FILLER_5_35
*363 FILLER_5_42
*364 FILLER_5_49
*365 FILLER_5_56
*366 FILLER_5_63
*367 FILLER_5_7
*368 FILLER_5_70
*369 FILLER_5_77
*370 FILLER_5_84
*371 FILLER_5_91
*372 FILLER_5_98
*373 FILLER_6_0
*374 FILLER_6_105
*375 FILLER_6_112
*376 FILLER_6_14
*377 FILLER_6_141
*378 FILLER_6_145
*379 FILLER_6_21
*380 FILLER_6_28
*381 FILLER_6_35
*382 FILLER_6_42
*383 FILLER_6_49
*384 FILLER_6_56
*385 FILLER_6_63
*386 FILLER_6_7
*387 FILLER_6_70
*388 FILLER_6_77
*389 FILLER_6_84
*390 FILLER_6_91
*391 FILLER_6_98
*392 FILLER_7_0
*393 FILLER_7_127
*394 FILLER_7_134
*395 FILLER_7_14
*396 FILLER_7_141
*397 FILLER_7_148
*398 FILLER_7_152
*399 FILLER_7_21
*400 FILLER_7_28
*401 FILLER_7_35
*402 FILLER_7_42
*403 FILLER_7_49
*404 FILLER_7_56
*405 FILLER_7_63
*406 FILLER_7_7
*407 FILLER_7_70
*408 FILLER_7_77
*409 FILLER_7_84
*410 FILLER_7_91
*411 FILLER_8_0
*412 FILLER_8_105
*413 FILLER_8_112
*414 FILLER_8_119
*415 FILLER_8_131
*416 FILLER_8_14
*417 FILLER_8_142
*418 FILLER_8_149
*419 FILLER_8_153
*420 FILLER_8_21
*421 FILLER_8_28
*422 FILLER_8_35
*423 FILLER_8_42
*424 FILLER_8_49
*425 FILLER_8_56
*426 FILLER_8_63
*427 FILLER_8_7
*428 FILLER_8_70
*429 FILLER_8_77
*430 FILLER_8_84
*431 FILLER_8_91
*432 FILLER_8_98
*433 FILLER_9_0
*434 FILLER_9_106
*435 FILLER_9_113
*436 FILLER_9_14
*437 FILLER_9_141
*438 FILLER_9_148
*439 FILLER_9_21
*440 FILLER_9_28
*441 FILLER_9_35
*442 FILLER_9_42
*443 FILLER_9_49
*444 FILLER_9_56
*445 FILLER_9_63
*446 FILLER_9_7
*447 FILLER_9_70
*448 FILLER_9_77
*449 _17_
*450 _18_
*451 _19_
*452 _20_
*453 _21_
*454 _22_
*455 _23_
*456 _24_
*457 _25_
*458 _25__28
*459 _26_
*460 _26__27
*461 _27_
*462 _27__26
*463 _28_
*464 _28__25
*465 _29_
*466 _29__24
*467 _30_
*468 _30__23
*469 _31_
*470 _31__22
*471 _32_
*472 _32__20
*473 _33_
*474 _33__21
*475 clkbuf_0_clk
*476 clkbuf_1_0__f_clk
*477 clkbuf_1_1__f_clk
*478 clkload0
*479 fanout19
*480 hold29
*481 hold30
*482 hold31
*483 hold32
*484 hold33
*485 hold34
*486 hold35
*487 hold36
*488 input1
*489 input2
*490 input3
*491 input4
*492 input5
*493 input6
*494 input7
*495 input8
*496 input9
*497 output10
*498 output11
*499 output12
*500 output13
*501 output14
*502 output15
*503 output16
*504 output17
*505 output18

*PORTS
analog_in[0] I
analog_in[1] I
analog_in[2] I
analog_in[3] I
analog_in[4] I
analog_in[5] I
analog_in[6] I
analog_in[7] I
clk I
data_out[0] O
data_out[1] O
data_out[2] O
data_out[3] O
data_out[4] O
data_out[5] O
data_out[6] O
data_out[7] O
ready O
start I

*D_NET *3 0.000533391
*CONN
*P analog_in[0] I
*I *488:A I *D sg13g2_buf_1
*CAP
1 analog_in[0] 0.000266695
2 *488:A 0.000266695
*RES
1 analog_in[0] *488:A 42.8634 
*END

*D_NET *4 0.000591034
*CONN
*P analog_in[1] I
*I *489:A I *D sg13g2_buf_1
*CAP
1 analog_in[1] 0.000295517
2 *489:A 0.000295517
3 *489:A *495:A 0
*RES
1 analog_in[1] *489:A 23.4299 
*END

*D_NET *5 0.000629141
*CONN
*P analog_in[2] I
*I *490:A I *D sg13g2_buf_1
*CAP
1 analog_in[2] 0.000314571
2 *490:A 0.000314571
3 *490:A data_out[2] 0
4 *490:A *56:10 0
*RES
1 analog_in[2] *490:A 42.8634 
*END

*D_NET *6 0.000556997
*CONN
*P analog_in[3] I
*I *491:A I *D sg13g2_buf_1
*CAP
1 analog_in[3] 0.000278499
2 *491:A 0.000278499
*RES
1 analog_in[3] *491:A 23.3269 
*END

*D_NET *7 0.000637831
*CONN
*P analog_in[4] I
*I *492:A I *D sg13g2_buf_1
*CAP
1 analog_in[4] 0.000318915
2 *492:A 0.000318915
3 *492:A data_out[4] 0
4 *492:A *501:A 0
5 *492:A *40:10 0
*RES
1 analog_in[4] *492:A 23.3269 
*END

*D_NET *8 0.000637831
*CONN
*P analog_in[5] I
*I *493:A I *D sg13g2_buf_1
*CAP
1 analog_in[5] 0.000318915
2 *493:A 0.000318915
3 *493:A data_out[5] 0
4 *493:A *40:20 0
*RES
1 analog_in[5] *493:A 23.3269 
*END

*D_NET *9 0.000423066
*CONN
*P analog_in[6] I
*I *494:A I *D sg13g2_buf_1
*CAP
1 analog_in[6] 0.000211533
2 *494:A 0.000211533
3 *494:A data_out[6] 0
*RES
1 analog_in[6] *494:A 42.163 
*END

*D_NET *10 0.000591034
*CONN
*P analog_in[7] I
*I *495:A I *D sg13g2_buf_1
*CAP
1 analog_in[7] 0.000295517
2 *495:A 0.000295517
3 *495:A *11:34 0
4 *489:A *495:A 0
*RES
1 analog_in[7] *495:A 23.4299 
*END

*D_NET *11 0.00443124
*CONN
*P clk I
*I *475:A I *D sg13g2_buf_16
*CAP
1 clk 0.00209546
2 *475:A 0.000120157
3 *11:34 0.00221562
4 *475:A *30:19 0
5 *475:A *30:39 0
6 *11:34 data_out[1] 0
7 *11:34 *450:A1 0
8 *11:34 *456:A1 0
9 *11:34 *459:CLK 0
10 *11:34 *471:RESET_B 0
11 *11:34 *471:D 0
12 *11:34 *498:A 0
13 *11:34 *30:39 0
14 *11:34 *44:90 0
15 *495:A *11:34 0
*RES
1 clk *11:34 22.2245 
2 *11:34 *475:A 21.1845 
*END

*D_NET *12 0.000522372
*CONN
*P data_out[0] O
*I *497:X O *D sg13g2_buf_1
*CAP
1 data_out[0] 0.000261186
2 *497:X 0.000261186
3 data_out[0] *497:A 0
*RES
1 *497:X data_out[0] 22.9973 
*END

*D_NET *13 0.000508243
*CONN
*P data_out[1] O
*I *498:X O *D sg13g2_buf_1
*CAP
1 data_out[1] 0.000254121
2 *498:X 0.000254121
3 *11:34 data_out[1] 0
*RES
1 *498:X data_out[1] 22.9973 
*END

*D_NET *14 0.000578765
*CONN
*P data_out[2] O
*I *499:X O *D sg13g2_buf_1
*CAP
1 data_out[2] 0.000289382
2 *499:X 0.000289382
3 data_out[2] *56:10 0
4 *490:A data_out[2] 0
*RES
1 *499:X data_out[2] 42.987 
*END

*D_NET *15 0.00060568
*CONN
*P data_out[3] O
*I *500:X O *D sg13g2_buf_1
*CAP
1 data_out[3] 0.00030284
2 *500:X 0.00030284
3 data_out[3] ready 0
4 data_out[3] *500:A 0
5 data_out[3] *43:8 0
*RES
1 *500:X data_out[3] 43.3681 
*END

*D_NET *16 0.00053485
*CONN
*P data_out[4] O
*I *501:X O *D sg13g2_buf_1
*CAP
1 data_out[4] 0.000267425
2 *501:X 0.000267425
3 *492:A data_out[4] 0
*RES
1 *501:X data_out[4] 22.678 
*END

*D_NET *17 0.00053485
*CONN
*P data_out[5] O
*I *502:X O *D sg13g2_buf_1
*CAP
1 data_out[5] 0.000267425
2 *502:X 0.000267425
3 *493:A data_out[5] 0
*RES
1 *502:X data_out[5] 22.678 
*END

*D_NET *18 0.000674468
*CONN
*P data_out[6] O
*I *503:X O *D sg13g2_buf_1
*CAP
1 data_out[6] 0.000337234
2 *503:X 0.000337234
3 data_out[6] *503:A 0
4 *494:A data_out[6] 0
*RES
1 *503:X data_out[6] 43.3475 
*END

*D_NET *19 0.00048871
*CONN
*P data_out[7] O
*I *504:X O *D sg13g2_buf_1
*CAP
1 data_out[7] 0.000244355
2 *504:X 0.000244355
*RES
1 *504:X data_out[7] 42.5956 
*END

*D_NET *20 0.000405251
*CONN
*P ready O
*I *505:X O *D sg13g2_buf_1
*CAP
1 ready 0.000202626
2 *505:X 0.000202626
3 ready *500:A 0
4 data_out[3] ready 0
*RES
1 *505:X ready 42.3793 
*END

*D_NET *21 0.000504557
*CONN
*P start I
*I *496:A I *D sg13g2_buf_1
*CAP
1 start 0.000252279
2 *496:A 0.000252279
*RES
1 start *496:A 42.8634 
*END

*D_NET *22 0.000404254
*CONN
*I *463:D I *D sg13g2_dfrbpq_1
*I *452:X O *D sg13g2_mux2_1
*CAP
1 *463:D 0.000202127
2 *452:X 0.000202127
3 *463:D *31:16 0
*RES
1 *452:X *463:D 41.9673 
*END

*D_NET *23 0.000492719
*CONN
*I *465:D I *D sg13g2_dfrbpq_1
*I *453:X O *D sg13g2_mux2_1
*CAP
1 *465:D 0.000235376
2 *453:X 0.000235376
3 *465:D *453:A1 0
4 *465:D *453:S 0
5 *465:D *454:S 0
6 *465:D *465:RESET_B 2.19663e-05
7 *465:D *44:32 0
*RES
1 *453:X *465:D 42.3999 
*END

*D_NET *24 0.000389883
*CONN
*I *467:D I *D sg13g2_dfrbpq_1
*I *454:X O *D sg13g2_mux2_1
*CAP
1 *467:D 0.000194942
2 *454:X 0.000194942
*RES
1 *454:X *467:D 41.9673 
*END

*D_NET *25 0.000625937
*CONN
*I *469:D I *D sg13g2_dfrbpq_1
*I *455:X O *D sg13g2_mux2_1
*CAP
1 *469:D 0.000305241
2 *455:X 0.000305241
3 *469:D *469:RESET_B 1.54556e-05
4 *469:D *469:CLK 0
*RES
1 *455:X *469:D 43.7595 
*END

*D_NET *26 0.000246465
*CONN
*I *471:D I *D sg13g2_dfrbpq_1
*I *456:X O *D sg13g2_mux2_1
*CAP
1 *471:D 0.000123232
2 *456:X 0.000123232
3 *471:D *471:RESET_B 0
4 *11:34 *471:D 0
*RES
1 *456:X *471:D 40.9797 
*END

*D_NET *27 0.000463038
*CONN
*I *457:D I *D sg13g2_dfrbpq_1
*I *449:X O *D sg13g2_mux2_1
*CAP
1 *457:D 0.000231519
2 *449:X 0.000231519
3 *457:D *457:RESET_B 0
4 *457:D *32:18 0
*RES
1 *449:X *457:D 42.3999 
*END

*D_NET *28 0.00191028
*CONN
*I *459:D I *D sg13g2_dfrbpq_1
*I *450:X O *D sg13g2_mux2_1
*CAP
1 *459:D 0.000174737
2 *450:X 0.00011785
3 *28:8 0.000292586
4 *459:D *459:RESET_B 0
5 *28:8 *32:48 0.000662302
6 *28:8 *44:80 0.000662803
*RES
1 *450:X *28:8 43.0694 
2 *28:8 *459:D 41.8334 
*END

*D_NET *29 0.000372745
*CONN
*I *461:D I *D sg13g2_dfrbpq_1
*I *451:X O *D sg13g2_mux2_1
*CAP
1 *461:D 0.000186372
2 *451:X 0.000186372
3 *461:D *451:S 0
4 *461:D *461:RESET_B 0
5 *461:D *44:15 0
*RES
1 *451:X *461:D 41.9673 
*END

*D_NET *30 0.00317779
*CONN
*I *477:A I *D sg13g2_buf_16
*I *476:A I *D sg13g2_buf_16
*I *475:X O *D sg13g2_buf_16
*CAP
1 *477:A 0.000115798
2 *476:A 8.6013e-05
3 *475:X 0
4 *30:39 0.000918576
5 *30:19 0.000432129
6 *30:13 0.00138708
7 *30:6 0.000238188
8 *477:A *456:A0 0
9 *477:A *456:A1 0
10 *30:39 *456:A0 0
11 *475:A *30:19 0
12 *475:A *30:39 0
13 *11:34 *30:39 0
*RES
1 *475:X *30:6 40 
2 *30:6 *30:13 23.0694 
3 *30:13 *30:19 4.017 
4 *30:19 *476:A 20.9682 
5 *30:13 *30:39 9.2288 
6 *30:39 *477:A 21.3184 
*END

*D_NET *31 0.00740194
*CONN
*I *469:CLK I *D sg13g2_dfrbpq_1
*I *473:CLK I *D sg13g2_dfrbpq_1
*I *463:CLK I *D sg13g2_dfrbpq_1
*I *465:CLK I *D sg13g2_dfrbpq_1
*I *467:CLK I *D sg13g2_dfrbpq_1
*I *476:X O *D sg13g2_buf_16
*CAP
1 *469:CLK 0.000537414
2 *473:CLK 0
3 *463:CLK 0
4 *465:CLK 0
5 *467:CLK 0
6 *476:X 0.000329611
7 *31:53 0.00083289
8 *31:40 0.000452295
9 *31:28 0.000501941
10 *31:20 0.00142701
11 *31:16 0.00141247
12 *31:8 0.000973824
13 *469:CLK *455:S 0.000339583
14 *469:CLK *469:RESET_B 0
15 *469:CLK *473:RESET_B 0
16 *31:8 *473:RESET_B 0
17 *31:16 *452:A1 0
18 *31:16 *463:RESET_B 0.000272602
19 *31:16 *61:8 0
20 *31:20 *501:A 0
21 *31:20 *39:8 0
22 *31:28 *484:A 0
23 *31:28 *501:A 0.000242071
24 *31:28 *57:10 0
25 *31:40 *61:8 0
26 *31:53 *473:RESET_B 0
27 *31:53 *486:A 8.02269e-05
28 *463:D *31:16 0
29 *469:D *469:CLK 0
*RES
1 *476:X *31:8 43.3475 
2 *31:8 *31:16 45.0882 
3 *31:16 *31:20 30.4854 
4 *31:20 *31:28 45.8298 
5 *31:28 *467:CLK 20 
6 *31:20 *465:CLK 20 
7 *31:8 *31:40 1.5862 
8 *31:40 *463:CLK 40 
9 *31:40 *31:53 23.1724 
10 *31:53 *473:CLK 20 
11 *31:53 *469:CLK 26.1594 
*END

*D_NET *32 0.00770023
*CONN
*I *471:CLK I *D sg13g2_dfrbpq_1
*I *459:CLK I *D sg13g2_dfrbpq_1
*I *478:A I *D sg13g2_inv_1
*I *457:CLK I *D sg13g2_dfrbpq_1
*I *461:CLK I *D sg13g2_dfrbpq_1
*I *477:X O *D sg13g2_buf_16
*CAP
1 *471:CLK 0.000614683
2 *459:CLK 0.000187817
3 *478:A 0
4 *457:CLK 0
5 *461:CLK 0
6 *477:X 0.000459344
7 *32:48 0.00120006
8 *32:18 0.00101637
9 *32:10 0.00150786
10 *32:8 0.000553273
11 *459:CLK *456:A1 0.000209871
12 *471:CLK *471:RESET_B 0
13 *471:CLK *480:A 0
14 *471:CLK *44:80 0
15 *471:CLK *54:14 0
16 *471:CLK *60:10 0.000608457
17 *32:8 *44:80 0.000236057
18 *32:10 *44:72 0
19 *32:10 *44:80 0.000396398
20 *32:18 *449:A1 4.77425e-05
21 *32:18 *44:72 0
22 *32:18 *62:8 0
23 *32:18 *68:16 0
24 *32:48 *44:80 0
25 *457:D *32:18 0
26 *11:34 *459:CLK 0
27 *28:8 *32:48 0.000662302
*RES
1 *477:X *32:8 41.0918 
2 *32:8 *32:10 6.283 
3 *32:10 *32:18 30.1352 
4 *32:18 *461:CLK 20 
5 *32:10 *457:CLK 40 
6 *32:8 *478:A 40 
7 *477:X *32:48 45.0882 
8 *32:48 *459:CLK 42.0703 
9 *32:48 *471:CLK 46.7621 
*END

*D_NET *33 0.000398324
*CONN
*I *471:RESET_B I *D sg13g2_dfrbpq_1
*I *472:L_HI O *D sg13g2_tiehi
*CAP
1 *471:RESET_B 0.000199162
2 *472:L_HI 0.000199162
3 *471:D *471:RESET_B 0
4 *471:CLK *471:RESET_B 0
5 *11:34 *471:RESET_B 0
*RES
1 *472:L_HI *471:RESET_B 42.1836 
*END

*D_NET *34 0.00145845
*CONN
*I *449:A1 I *D sg13g2_mux2_1
*I *488:X O *D sg13g2_buf_1
*CAP
1 *449:A1 3.31866e-05
2 *488:X 0.000672166
3 *34:8 0.000705353
4 *449:A1 *68:16 0
5 *34:8 *68:8 0
6 *32:18 *449:A1 4.77425e-05
*RES
1 *488:X *34:8 47.7662 
2 *34:8 *449:A1 40.3193 
*END

*D_NET *35 0.00208953
*CONN
*I *497:A I *D sg13g2_buf_1
*I *487:A I *D sg13g2_dlygate4sd3_1
*I *457:Q O *D sg13g2_dfrbpq_1
*CAP
1 *497:A 0.0007734
2 *487:A 0.000271365
3 *457:Q 0.00104477
4 data_out[0] *497:A 0
*RES
1 *457:Q *487:A 43.2342 
2 *457:Q *497:A 48.7962 
*END

*D_NET *36 0.00150115
*CONN
*I *485:A I *D sg13g2_dlygate4sd3_1
*I *498:A I *D sg13g2_buf_1
*I *459:Q O *D sg13g2_dfrbpq_1
*CAP
1 *485:A 0.000234967
2 *498:A 0.000515611
3 *459:Q 0
4 *36:4 0.000750577
5 *498:A *450:A1 0
6 *11:34 *498:A 0
*RES
1 *459:Q *36:4 20 
2 *36:4 *498:A 25.8607 
3 *36:4 *485:A 22.8634 
*END

*D_NET *37 0.00224178
*CONN
*I *481:A I *D sg13g2_dlygate4sd3_1
*I *499:A I *D sg13g2_buf_1
*I *461:Q O *D sg13g2_dfrbpq_1
*CAP
1 *481:A 0.000209882
2 *499:A 0.000861369
3 *461:Q 4.96387e-05
4 *37:8 0.00112089
5 *481:A *44:32 0
6 *499:A *44:30 0
7 *499:A *55:8 0
8 *499:A *56:10 0
9 *37:8 *44:30 0
*RES
1 *461:Q *37:8 40.5974 
2 *37:8 *499:A 49.2494 
3 *37:8 *481:A 42.0497 
*END

*D_NET *38 0.00172432
*CONN
*I *500:A I *D sg13g2_buf_1
*I *486:A I *D sg13g2_dlygate4sd3_1
*I *463:Q O *D sg13g2_dfrbpq_1
*CAP
1 *500:A 0.000431723
2 *486:A 0.000390321
3 *463:Q 0
4 *38:6 0.000822044
5 *500:A *43:8 0
6 data_out[3] *500:A 0
7 ready *500:A 0
8 *31:53 *486:A 8.02269e-05
*RES
1 *463:Q *38:6 40 
2 *38:6 *486:A 44.2848 
3 *38:6 *500:A 44.6865 
*END

*D_NET *39 0.00235973
*CONN
*I *484:A I *D sg13g2_dlygate4sd3_1
*I *501:A I *D sg13g2_buf_1
*I *465:Q O *D sg13g2_dfrbpq_1
*CAP
1 *484:A 0.000247789
2 *501:A 0.000754441
3 *465:Q 5.65992e-05
4 *39:8 0.00105883
5 *501:A *453:A1 0
6 *501:A *40:10 0
7 *501:A *40:20 0
8 *492:A *501:A 0
9 *31:20 *501:A 0
10 *31:20 *39:8 0
11 *31:28 *484:A 0
12 *31:28 *501:A 0.000242071
*RES
1 *465:Q *39:8 40.5974 
2 *39:8 *501:A 48.1164 
3 *39:8 *484:A 42.4823 
*END

*D_NET *40 0.00146979
*CONN
*I *482:A I *D sg13g2_dlygate4sd3_1
*I *502:A I *D sg13g2_buf_1
*I *467:Q O *D sg13g2_dfrbpq_1
*CAP
1 *482:A 0
2 *502:A 0
3 *467:Q 0.000217851
4 *40:20 0.000517043
5 *40:10 0.000734894
6 *40:10 *453:A1 0
7 *40:20 *453:A1 0
8 *40:20 *454:A1 0
9 *492:A *40:10 0
10 *493:A *40:20 0
11 *501:A *40:10 0
12 *501:A *40:20 0
*RES
1 *467:Q *40:10 22.3484 
2 *40:10 *40:20 45.7165 
3 *40:20 *502:A 20 
4 *40:10 *482:A 20 
*END

*D_NET *41 0.00111624
*CONN
*I *503:A I *D sg13g2_buf_1
*I *483:A I *D sg13g2_dlygate4sd3_1
*I *469:Q O *D sg13g2_dfrbpq_1
*CAP
1 *503:A 0.000162364
2 *483:A 0.000176301
3 *469:Q 0.000395757
4 *41:24 0.00038182
5 *483:A *66:10 0
6 data_out[6] *503:A 0
*RES
1 *469:Q *483:A 42.0703 
2 *469:Q *41:24 42.8222 
3 *41:24 *503:A 41.6171 
*END

*D_NET *42 0.00155667
*CONN
*I *504:A I *D sg13g2_buf_1
*I *480:A I *D sg13g2_dlygate4sd3_1
*I *471:Q O *D sg13g2_dfrbpq_1
*CAP
1 *504:A 0.000436163
2 *480:A 0.000342173
3 *471:Q 0
4 *42:6 0.000778335
5 *480:A *455:S 0
6 *480:A *44:101 0
7 *471:CLK *480:A 0
*RES
1 *471:Q *42:6 40 
2 *42:6 *480:A 43.4814 
3 *42:6 *504:A 45.0573 
*END

*D_NET *43 0.000456142
*CONN
*I *505:A I *D sg13g2_buf_1
*I *473:Q O *D sg13g2_dfrbpq_1
*CAP
1 *505:A 0
2 *473:Q 0.000228071
3 *43:8 0.000228071
4 data_out[3] *43:8 0
5 *500:A *43:8 0
*RES
1 *473:Q *43:8 42.8222 
2 *43:8 *505:A 40 
*END

*D_NET *44 0.0183512
*CONN
*I *450:S I *D sg13g2_mux2_1
*I *455:S I *D sg13g2_mux2_1
*I *456:S I *D sg13g2_mux2_1
*I *452:S I *D sg13g2_mux2_1
*I *453:S I *D sg13g2_mux2_1
*I *454:S I *D sg13g2_mux2_1
*I *451:S I *D sg13g2_mux2_1
*I *449:S I *D sg13g2_mux2_1
*I *479:X O *D sg13g2_buf_1
*CAP
1 *450:S 0
2 *455:S 0.00101562
3 *456:S 0
4 *452:S 0.000750984
5 *453:S 3.36135e-05
6 *454:S 0.000175995
7 *451:S 0.000123249
8 *449:S 0
9 *479:X 0.00104664
10 *44:101 0.00142923
11 *44:90 0.000392702
12 *44:82 0.000861896
13 *44:80 0.000931858
14 *44:72 0.00176318
15 *44:43 0.00110315
16 *44:32 0.00162597
17 *44:30 0.00159455
18 *44:15 0.00110428
19 *44:6 0.000677646
20 *451:S *451:A1 0
21 *451:S *68:16 0
22 *452:S *59:8 0.000449344
23 *454:S *467:RESET_B 0
24 *455:S *469:RESET_B 0
25 *44:6 *68:16 0
26 *44:15 *461:RESET_B 0
27 *44:15 *68:16 0.000803047
28 *44:30 *55:8 0
29 *44:32 *467:RESET_B 0
30 *44:43 *59:8 0.000182023
31 *44:72 *68:8 0.000127878
32 *44:80 *54:14 0
33 *44:80 *60:10 0.000181192
34 *44:101 *54:14 0.000342364
35 *44:101 *60:10 0
36 *461:D *451:S 0
37 *461:D *44:15 0
38 *465:D *453:S 0
39 *465:D *454:S 0
40 *465:D *44:32 0
41 *469:CLK *455:S 0.000339583
42 *471:CLK *44:80 0
43 *480:A *455:S 0
44 *480:A *44:101 0
45 *481:A *44:32 0
46 *499:A *44:30 0
47 *11:34 *44:90 0
48 *28:8 *44:80 0.000662803
49 *32:8 *44:80 0.000236057
50 *32:10 *44:72 0
51 *32:10 *44:80 0.000396398
52 *32:18 *44:72 0
53 *32:48 *44:80 0
54 *37:8 *44:30 0
*RES
1 *479:X *44:6 21.4008 
2 *44:6 *449:S 20 
3 *44:6 *44:15 5.8607 
4 *44:15 *451:S 21.3493 
5 *44:15 *44:30 44.7998 
6 *44:30 *44:32 12.6484 
7 *44:32 *454:S 21.6171 
8 *44:32 *44:43 24.0582 
9 *44:43 *453:S 40.3193 
10 *44:43 *452:S 49.8159 
11 *479:X *44:72 49.7438 
12 *44:72 *44:80 31.3403 
13 *44:80 *44:82 0.5356 
14 *44:82 *44:90 44.223 
15 *44:90 *456:S 20 
16 *44:82 *44:101 44.5526 
17 *44:101 *455:S 31.3506 
18 *44:80 *450:S 20 
*END

*D_NET *45 0.00217283
*CONN
*I *450:A1 I *D sg13g2_mux2_1
*I *489:X O *D sg13g2_buf_1
*CAP
1 *450:A1 0.000853961
2 *489:X 0.000200498
3 *45:8 0.00105446
4 *450:A1 *450:A0 6.39133e-05
5 *450:A1 *60:10 0
6 *498:A *450:A1 0
7 *11:34 *450:A1 0
*RES
1 *489:X *45:8 42.3278 
2 *45:8 *450:A1 48.2709 
*END

*D_NET *46 0.000621367
*CONN
*I *473:RESET_B I *D sg13g2_dfrbpq_1
*I *474:L_HI O *D sg13g2_tiehi
*CAP
1 *473:RESET_B 0.000310683
2 *474:L_HI 0.000310683
3 *469:CLK *473:RESET_B 0
4 *31:8 *473:RESET_B 0
5 *31:53 *473:RESET_B 0
*RES
1 *474:L_HI *473:RESET_B 43.2754 
*END

*D_NET *47 0.000464648
*CONN
*I *469:RESET_B I *D sg13g2_dfrbpq_1
*I *470:L_HI O *D sg13g2_tiehi
*CAP
1 *469:RESET_B 0.000224596
2 *470:L_HI 0.000224596
3 *455:S *469:RESET_B 0
4 *469:D *469:RESET_B 1.54556e-05
5 *469:CLK *469:RESET_B 0
*RES
1 *470:L_HI *469:RESET_B 42.6162 
*END

*D_NET *48 0.00122455
*CONN
*I *467:RESET_B I *D sg13g2_dfrbpq_1
*I *468:L_HI O *D sg13g2_tiehi
*CAP
1 *467:RESET_B 0.000442906
2 *468:L_HI 0.000442906
3 *467:RESET_B *454:A0 0.000338734
4 *454:S *467:RESET_B 0
5 *44:32 *467:RESET_B 0
*RES
1 *468:L_HI *467:RESET_B 44.7792 
*END

*D_NET *49 0.000402791
*CONN
*I *465:RESET_B I *D sg13g2_dfrbpq_1
*I *466:L_HI O *D sg13g2_tiehi
*CAP
1 *465:RESET_B 0.000190412
2 *466:L_HI 0.000190412
3 *465:D *465:RESET_B 2.19663e-05
*RES
1 *466:L_HI *465:RESET_B 42.3278 
*END

*D_NET *50 0.000646872
*CONN
*I *463:RESET_B I *D sg13g2_dfrbpq_1
*I *464:L_HI O *D sg13g2_tiehi
*CAP
1 *463:RESET_B 0.000187135
2 *464:L_HI 0.000187135
3 *31:16 *463:RESET_B 0.000272602
*RES
1 *464:L_HI *463:RESET_B 42.1836 
*END

*D_NET *51 0.000454352
*CONN
*I *461:RESET_B I *D sg13g2_dfrbpq_1
*I *462:L_HI O *D sg13g2_tiehi
*CAP
1 *461:RESET_B 0.000227176
2 *462:L_HI 0.000227176
3 *461:D *461:RESET_B 0
4 *44:15 *461:RESET_B 0
*RES
1 *462:L_HI *461:RESET_B 42.6162 
*END

*D_NET *52 0.000445192
*CONN
*I *459:RESET_B I *D sg13g2_dfrbpq_1
*I *460:L_HI O *D sg13g2_tiehi
*CAP
1 *459:RESET_B 0.000222596
2 *460:L_HI 0.000222596
3 *459:RESET_B *456:A1 0
4 *459:D *459:RESET_B 0
*RES
1 *460:L_HI *459:RESET_B 42.5282 
*END

*D_NET *53 0.000579077
*CONN
*I *457:RESET_B I *D sg13g2_dfrbpq_1
*I *458:L_HI O *D sg13g2_tiehi
*CAP
1 *457:RESET_B 0.000289539
2 *458:L_HI 0.000289539
3 *457:D *457:RESET_B 0
*RES
1 *458:L_HI *457:RESET_B 43.2136 
*END

*D_NET *54 0.00177865
*CONN
*I *456:A0 I *D sg13g2_mux2_1
*I *480:X O *D sg13g2_dlygate4sd3_1
*CAP
1 *456:A0 0.000190754
2 *480:X 0.00045497
3 *54:14 0.000645724
4 *456:A0 *456:A1 0.000144842
5 *54:14 *60:10 0
6 *471:CLK *54:14 0
7 *477:A *456:A0 0
8 *30:39 *456:A0 0
9 *44:80 *54:14 0
10 *44:101 *54:14 0.000342364
*RES
1 *480:X *54:14 44.8307 
2 *54:14 *456:A0 41.9673 
*END

*D_NET *55 0.000603704
*CONN
*I *451:A0 I *D sg13g2_mux2_1
*I *481:X O *D sg13g2_dlygate4sd3_1
*CAP
1 *451:A0 0
2 *481:X 0.000301852
3 *55:8 0.000301852
4 *499:A *55:8 0
5 *44:30 *55:8 0
*RES
1 *481:X *55:8 42.8222 
2 *55:8 *451:A0 40 
*END

*D_NET *56 0.00128135
*CONN
*I *451:A1 I *D sg13g2_mux2_1
*I *490:X O *D sg13g2_buf_1
*CAP
1 *451:A1 4.9812e-05
2 *490:X 0.000590864
3 *56:10 0.000640676
4 *451:A1 *68:16 0
5 data_out[2] *56:10 0
6 *451:S *451:A1 0
7 *490:A *56:10 0
8 *499:A *56:10 0
*RES
1 *490:X *56:10 46.9422 
2 *56:10 *451:A1 40.5356 
*END

*D_NET *57 0.0019303
*CONN
*I *454:A0 I *D sg13g2_mux2_1
*I *482:X O *D sg13g2_dlygate4sd3_1
*CAP
1 *454:A0 0.000233886
2 *482:X 0.000343863
3 *57:10 0.000577749
4 *454:A0 *454:A1 0.00043607
5 *57:10 *453:A1 0
6 *467:RESET_B *454:A0 0.000338734
7 *31:28 *57:10 0
*RES
1 *482:X *57:10 43.8213 
2 *57:10 *454:A0 42.9149 
*END

*D_NET *58 0.000720885
*CONN
*I *455:A0 I *D sg13g2_mux2_1
*I *483:X O *D sg13g2_dlygate4sd3_1
*CAP
1 *455:A0 0
2 *483:X 0.000136652
3 *58:8 0.000136652
4 *58:8 *66:10 0.000447581
*RES
1 *483:X *58:8 42.0806 
2 *58:8 *455:A0 40 
*END

*D_NET *59 0.000966959
*CONN
*I *453:A0 I *D sg13g2_mux2_1
*I *484:X O *D sg13g2_dlygate4sd3_1
*CAP
1 *453:A0 0
2 *484:X 0.000167796
3 *59:8 0.000167796
4 *452:S *59:8 0.000449344
5 *44:43 *59:8 0.000182023
*RES
1 *484:X *59:8 42.8222 
2 *59:8 *453:A0 40 
*END

*D_NET *60 0.00153366
*CONN
*I *450:A0 I *D sg13g2_mux2_1
*I *485:X O *D sg13g2_dlygate4sd3_1
*CAP
1 *450:A0 4.39956e-05
2 *485:X 0.000296053
3 *60:10 0.000340048
4 *450:A1 *450:A0 6.39133e-05
5 *450:A1 *60:10 0
6 *471:CLK *60:10 0.000608457
7 *44:80 *60:10 0.000181192
8 *44:101 *60:10 0
9 *54:14 *60:10 0
*RES
1 *485:X *60:10 44.0067 
2 *60:10 *450:A0 40.4274 
*END

*D_NET *61 0.000670748
*CONN
*I *452:A0 I *D sg13g2_mux2_1
*I *486:X O *D sg13g2_dlygate4sd3_1
*CAP
1 *452:A0 0
2 *486:X 0.000335374
3 *61:8 0.000335374
4 *31:16 *61:8 0
5 *31:40 *61:8 0
*RES
1 *486:X *61:8 43.811 
2 *61:8 *452:A0 40 
*END

*D_NET *62 0.000845724
*CONN
*I *449:A0 I *D sg13g2_mux2_1
*I *487:X O *D sg13g2_dlygate4sd3_1
*CAP
1 *449:A0 0
2 *487:X 0.000422862
3 *62:8 0.000422862
4 *32:18 *62:8 0
*RES
1 *487:X *62:8 44.0582 
2 *62:8 *449:A0 40 
*END

*D_NET *63 0.00145152
*CONN
*I *452:A1 I *D sg13g2_mux2_1
*I *491:X O *D sg13g2_buf_1
*CAP
1 *452:A1 0.000725758
2 *491:X 0.000725758
3 *31:16 *452:A1 0
*RES
1 *491:X *452:A1 48.2194 
*END

*D_NET *64 0.00149604
*CONN
*I *453:A1 I *D sg13g2_mux2_1
*I *492:X O *D sg13g2_buf_1
*CAP
1 *453:A1 0.000748019
2 *492:X 0.000748019
3 *465:D *453:A1 0
4 *501:A *453:A1 0
5 *40:10 *453:A1 0
6 *40:20 *453:A1 0
7 *57:10 *453:A1 0
*RES
1 *492:X *453:A1 47.725 
*END

*D_NET *65 0.00152054
*CONN
*I *454:A1 I *D sg13g2_mux2_1
*I *493:X O *D sg13g2_buf_1
*CAP
1 *454:A1 0.000542236
2 *493:X 0.000542236
3 *454:A0 *454:A1 0.00043607
4 *40:20 *454:A1 0
*RES
1 *493:X *454:A1 46.2109 
*END

*D_NET *66 0.0018061
*CONN
*I *455:A1 I *D sg13g2_mux2_1
*I *494:X O *D sg13g2_buf_1
*CAP
1 *455:A1 0
2 *494:X 0.000679261
3 *66:10 0.000679261
4 *483:A *66:10 0
5 *58:8 *66:10 0.000447581
*RES
1 *494:X *66:10 48.3636 
2 *66:10 *455:A1 40 
*END

*D_NET *67 0.00217487
*CONN
*I *456:A1 I *D sg13g2_mux2_1
*I *495:X O *D sg13g2_buf_1
*CAP
1 *456:A1 0.000910077
2 *495:X 0.000910077
3 *456:A0 *456:A1 0.000144842
4 *459:RESET_B *456:A1 0
5 *459:CLK *456:A1 0.000209871
6 *477:A *456:A1 0
7 *11:34 *456:A1 0
*RES
1 *495:X *456:A1 49.7747 
*END

*D_NET *68 0.00844399
*CONN
*I *479:A I *D sg13g2_buf_1
*I *473:D I *D sg13g2_dfrbpq_1
*I *496:X O *D sg13g2_buf_1
*CAP
1 *479:A 0
2 *473:D 0
3 *496:X 0.000590977
4 *68:20 0.00163564
5 *68:16 0.00313246
6 *68:12 0.00152992
7 *68:8 0.000624075
8 *449:A1 *68:16 0
9 *451:A1 *68:16 0
10 *451:S *68:16 0
11 *32:18 *68:16 0
12 *34:8 *68:8 0
13 *44:6 *68:16 0
14 *44:15 *68:16 0.000803047
15 *44:72 *68:8 0.000127878
*RES
1 *496:X *68:8 47.2718 
2 *68:8 *68:12 20.3193 
3 *68:12 *68:16 36.1092 
4 *68:16 *68:20 40.6206 
5 *68:20 *473:D 20 
6 *68:12 *479:A 20 
*END
