*SPEF "ieee 1481-1999"
*DESIGN "delay_line"
*DATE "03:45:53 Saturday February 21, 2026"
*VENDOR "The OpenROAD Project"
*PROGRAM "OpenROAD"
*VERSION "dfc4f595dfb2e1c346492ff1f0274abb28725acf"
*DESIGN_FLOW "NAME_SCOPE LOCAL" "PIN_CAP NONE"
*DIVIDER /
*DELIMITER :
*BUS_DELIMITER []
*T_UNIT 1 NS
*C_UNIT 1 PF
*R_UNIT 1 OHM
*L_UNIT 1 HENRY

*NAME_MAP
*3 clk
*4 clk_delayed
*5 delay[0]
*6 delay[1]
*7 delay[2]
*8 delay[3]
*9 _00_
*10 _01_
*11 _02_
*12 _03_
*13 _04_
*14 _05_
*15 _06_
*16 _07_
*17 _08_
*18 _09_
*19 _10_
*20 _11_
*21 _12_
*22 _13_
*23 buffer\[0\]
*24 clknet_0_clk
*25 clknet_1_0__leaf_clk
*26 clknet_1_1__leaf_clk
*27 net
*28 net1
*29 net10
*30 net11
*31 net12
*32 net13
*33 net14
*34 net2
*35 net3
*36 net4
*37 net5
*38 net6
*39 net7
*40 net8
*41 net9
*42 FILLER_0_0
*43 FILLER_0_103
*44 FILLER_0_110
*45 FILLER_0_112
*46 FILLER_0_14
*47 FILLER_0_21
*48 FILLER_0_28
*49 FILLER_0_35
*50 FILLER_0_42
*51 FILLER_0_49
*52 FILLER_0_56
*53 FILLER_0_61
*54 FILLER_0_68
*55 FILLER_0_7
*56 FILLER_0_75
*57 FILLER_0_82
*58 FILLER_0_89
*59 FILLER_0_96
*60 FILLER_10_0
*61 FILLER_10_102
*62 FILLER_10_109
*63 FILLER_10_14
*64 FILLER_10_21
*65 FILLER_10_28
*66 FILLER_10_32
*67 FILLER_10_42
*68 FILLER_10_49
*69 FILLER_10_56
*70 FILLER_10_60
*71 FILLER_10_64
*72 FILLER_10_7
*73 FILLER_10_95
*74 FILLER_11_0
*75 FILLER_11_101
*76 FILLER_11_108
*77 FILLER_11_112
*78 FILLER_11_14
*79 FILLER_11_21
*80 FILLER_11_28
*81 FILLER_11_35
*82 FILLER_11_42
*83 FILLER_11_49
*84 FILLER_11_53
*85 FILLER_11_7
*86 FILLER_11_80
*87 FILLER_11_87
*88 FILLER_11_94
*89 FILLER_12_0
*90 FILLER_12_105
*91 FILLER_12_112
*92 FILLER_12_14
*93 FILLER_12_21
*94 FILLER_12_28
*95 FILLER_12_35
*96 FILLER_12_42
*97 FILLER_12_49
*98 FILLER_12_56
*99 FILLER_12_58
*100 FILLER_12_63
*101 FILLER_12_7
*102 FILLER_12_70
*103 FILLER_12_77
*104 FILLER_12_84
*105 FILLER_12_91
*106 FILLER_12_98
*107 FILLER_1_0
*108 FILLER_1_105
*109 FILLER_1_112
*110 FILLER_1_14
*111 FILLER_1_21
*112 FILLER_1_28
*113 FILLER_1_35
*114 FILLER_1_42
*115 FILLER_1_49
*116 FILLER_1_56
*117 FILLER_1_63
*118 FILLER_1_7
*119 FILLER_1_70
*120 FILLER_1_77
*121 FILLER_1_84
*122 FILLER_1_91
*123 FILLER_1_98
*124 FILLER_2_0
*125 FILLER_2_105
*126 FILLER_2_112
*127 FILLER_2_14
*128 FILLER_2_21
*129 FILLER_2_28
*130 FILLER_2_35
*131 FILLER_2_42
*132 FILLER_2_49
*133 FILLER_2_7
*134 FILLER_2_77
*135 FILLER_2_84
*136 FILLER_2_91
*137 FILLER_2_98
*138 FILLER_3_0
*139 FILLER_3_107
*140 FILLER_3_111
*141 FILLER_3_14
*142 FILLER_3_21
*143 FILLER_3_28
*144 FILLER_3_35
*145 FILLER_3_42
*146 FILLER_3_46
*147 FILLER_3_7
*148 FILLER_4_0
*149 FILLER_4_103
*150 FILLER_4_110
*151 FILLER_4_112
*152 FILLER_4_14
*153 FILLER_4_21
*154 FILLER_4_28
*155 FILLER_4_35
*156 FILLER_4_42
*157 FILLER_4_49
*158 FILLER_4_53
*159 FILLER_4_59
*160 FILLER_4_64
*161 FILLER_4_7
*162 FILLER_4_71
*163 FILLER_4_73
*164 FILLER_4_79
*165 FILLER_4_89
*166 FILLER_4_96
*167 FILLER_5_0
*168 FILLER_5_103
*169 FILLER_5_110
*170 FILLER_5_112
*171 FILLER_5_14
*172 FILLER_5_21
*173 FILLER_5_28
*174 FILLER_5_35
*175 FILLER_5_42
*176 FILLER_5_49
*177 FILLER_5_56
*178 FILLER_5_58
*179 FILLER_5_7
*180 FILLER_5_80
*181 FILLER_5_84
*182 FILLER_5_89
*183 FILLER_5_96
*184 FILLER_6_0
*185 FILLER_6_101
*186 FILLER_6_108
*187 FILLER_6_112
*188 FILLER_6_14
*189 FILLER_6_21
*190 FILLER_6_28
*191 FILLER_6_35
*192 FILLER_6_42
*193 FILLER_6_49
*194 FILLER_6_56
*195 FILLER_6_7
*196 FILLER_6_94
*197 FILLER_7_0
*198 FILLER_7_107
*199 FILLER_7_14
*200 FILLER_7_21
*201 FILLER_7_28
*202 FILLER_7_35
*203 FILLER_7_42
*204 FILLER_7_49
*205 FILLER_7_56
*206 FILLER_7_63
*207 FILLER_7_69
*208 FILLER_7_7
*209 FILLER_8_0
*210 FILLER_8_106
*211 FILLER_8_14
*212 FILLER_8_21
*213 FILLER_8_28
*214 FILLER_8_57
*215 FILLER_8_64
*216 FILLER_8_7
*217 FILLER_8_71
*218 FILLER_8_78
*219 FILLER_8_85
*220 FILLER_8_92
*221 FILLER_8_99
*222 FILLER_9_105
*223 FILLER_9_112
*224 FILLER_9_21
*225 FILLER_9_28
*226 FILLER_9_56
*227 FILLER_9_63
*228 FILLER_9_69
*229 FILLER_9_77
*230 FILLER_9_8
*231 FILLER_9_84
*232 FILLER_9_91
*233 FILLER_9_98
*234 _20_
*235 _21_
*236 _22_
*237 _23_
*238 _24_
*239 _25_
*240 _26_
*241 _27_
*242 _28_
*243 _29_
*244 _30_
*245 _30__8
*246 _31_
*247 _31__9
*248 _32_
*249 _32__10
*250 _33_
*251 _33__11
*252 _34_
*253 _34__6
*254 _35_
*255 _35__7
*256 clkbuf_0_clk
*257 clkbuf_1_0__f_clk
*258 clkbuf_1_1__f_clk
*259 hold12
*260 hold13
*261 hold14
*262 hold15
*263 input1
*264 input2
*265 input3
*266 input4
*267 output5

*PORTS
clk I
clk_delayed O
delay[0] I
delay[1] I
delay[2] I
delay[3] I

*D_NET *3 0.00245266
*CONN
*P clk I
*I *256:A I *D sg13g2_buf_16
*CAP
1 clk 0.00113041
2 *256:A 9.59205e-05
3 *3:10 0.00122633
4 *256:A *246:RESET_B 0
5 *256:A *246:CLK 0
6 *3:10 *246:RESET_B 0
7 *3:10 *246:CLK 0
8 *3:10 *257:A 0
9 *3:10 *259:A 0
10 *3:10 *24:19 0
*RES
1 clk *3:10 31.4845 
2 *3:10 *256:A 20.9682 
*END

*D_NET *4 0.00025445
*CONN
*P clk_delayed O
*I *267:X O *D sg13g2_buf_1
*CAP
1 clk_delayed 0.000127225
2 *267:X 0.000127225
*RES
1 *267:X clk_delayed 41.6789 
*END

*D_NET *5 0.000556997
*CONN
*P delay[0] I
*I *263:A I *D sg13g2_buf_1
*CAP
1 delay[0] 0.000278499
2 *263:A 0.000278499
*RES
1 delay[0] *263:A 23.3269 
*END

*D_NET *6 0.0005477
*CONN
*P delay[1] I
*I *264:A I *D sg13g2_buf_1
*CAP
1 delay[1] 0.00027385
2 *264:A 0.00027385
3 *264:A *265:A 0
*RES
1 delay[1] *264:A 42.8634 
*END

*D_NET *7 0.000532972
*CONN
*P delay[2] I
*I *265:A I *D sg13g2_buf_1
*CAP
1 delay[2] 0.000266486
2 *265:A 0.000266486
3 *265:A *34:8 0
4 *265:A *35:10 0
5 *264:A *265:A 0
*RES
1 delay[2] *265:A 42.987 
*END

*D_NET *8 0.000791856
*CONN
*P delay[3] I
*I *266:A I *D sg13g2_buf_1
*CAP
1 delay[3] 0.000395928
2 *266:A 0.000395928
*RES
1 delay[3] *266:A 24.8101 
*END

*D_NET *9 0.00428011
*CONN
*I *254:D I *D sg13g2_dfrbpq_1
*I *243:A I *D sg13g2_nor3_1
*I *238:B I *D sg13g2_nor2_1
*I *236:Y O *D sg13g2_inv_1
*CAP
1 *254:D 0.000124887
2 *243:A 0
3 *238:B 0.000526325
4 *236:Y 0
5 *9:20 0.000937315
6 *9:10 0.000931518
7 *9:4 0.000645415
8 *238:B *241:A2 0
9 *238:B *241:B1 0
10 *238:B *244:RESET_B 0.000338359
11 *238:B *261:A 0
12 *254:D *254:RESET_B 0
13 *9:10 *240:B 0
14 *9:10 *12:10 0
15 *9:10 *20:6 0.000533939
16 *9:20 *20:6 0.000242355
*RES
1 *236:Y *9:4 20 
2 *9:4 *9:10 5.9946 
3 *9:10 *9:20 44.9749 
4 *9:20 *238:B 25.9431 
5 *9:10 *243:A 20 
6 *9:4 *254:D 21.9055 
*END

*D_NET *10 0.000538356
*CONN
*I *244:D I *D sg13g2_dfrbpq_1
*I *238:Y O *D sg13g2_nor2_1
*CAP
1 *244:D 0.000269178
2 *238:Y 0.000269178
3 *244:D *244:RESET_B 0
*RES
1 *238:Y *244:D 42.6471 
*END

*D_NET *11 0.000970397
*CONN
*I *259:A I *D sg13g2_dlygate4sd3_1
*I *248:Q O *D sg13g2_dfrbpq_1
*CAP
1 *259:A 0.00012635
2 *248:Q 0.000161184
3 *11:10 0.000287534
4 *259:A *257:A 0
5 *259:A *24:19 0
6 *11:10 *239:B_N 0
7 *11:10 *25:16 0.000395329
8 *3:10 *259:A 0
*RES
1 *248:Q *11:10 42.1527 
2 *11:10 *259:A 41.1845 
*END

*D_NET *12 0.00048151
*CONN
*I *240:A I *D sg13g2_nor3_1
*I *250:Q O *D sg13g2_dfrbpq_1
*CAP
1 *240:A 0
2 *250:Q 0.000240755
3 *12:10 0.000240755
4 *12:10 *254:CLK 0
5 *12:10 *13:8 0
6 *12:10 *26:14 0
7 *9:10 *12:10 0
*RES
1 *250:Q *12:10 42.8943 
2 *12:10 *240:A 40 
*END

*D_NET *13 0.000922025
*CONN
*I *240:B I *D sg13g2_nor3_1
*I *252:Q O *D sg13g2_dfrbpq_1
*CAP
1 *240:B 0.000143649
2 *252:Q 0.000228714
3 *13:8 0.000372363
4 *240:B *254:RESET_B 0
5 *240:B *20:6 0.0001773
6 *240:B *24:40 0
7 *9:10 *240:B 0
8 *12:10 *13:8 0
*RES
1 *252:Q *13:8 42.8222 
2 *13:8 *240:B 41.2475 
*END

*D_NET *14 0.0013074
*CONN
*I *240:C I *D sg13g2_nor3_1
*I *254:Q O *D sg13g2_dfrbpq_1
*CAP
1 *240:C 0
2 *254:Q 0.000653702
3 *14:10 0.000653702
4 *14:10 *254:CLK 0
*RES
1 *254:Q *14:10 47.931 
2 *14:10 *240:C 40 
*END

*D_NET *15 0.00031314
*CONN
*I *262:A I *D sg13g2_dlygate4sd3_1
*I *243:Y O *D sg13g2_nor3_1
*CAP
1 *262:A 5.80287e-05
2 *243:Y 9.85415e-05
3 *15:8 0.00015657
4 *262:A *243:C 0
5 *262:A *24:40 0
*RES
1 *243:Y *15:8 41.0918 
2 *15:8 *262:A 40.5356 
*END

*D_NET *16 0.000429133
*CONN
*I *248:D I *D sg13g2_dfrbpq_1
*I *238:A I *D sg13g2_nor2_1
*I *234:Y O *D sg13g2_inv_1
*CAP
1 *248:D 0.000122076
2 *238:A 0
3 *234:Y 9.24903e-05
4 *16:8 0.000214567
*RES
1 *234:Y *16:8 40.8446 
2 *16:8 *238:A 40 
3 *16:8 *248:D 41.0918 
*END

*D_NET *17 0.000463018
*CONN
*I *250:D I *D sg13g2_dfrbpq_1
*I *235:Y O *D sg13g2_inv_1
*CAP
1 *250:D 0
2 *235:Y 0.000231509
3 *17:8 0.000231509
4 *17:8 *18:10 0
*RES
1 *235:Y *17:8 42.575 
2 *17:8 *250:D 40 
*END

*D_NET *18 0.000938426
*CONN
*I *252:D I *D sg13g2_dfrbpq_1
*I *237:Y O *D sg13g2_inv_1
*CAP
1 *252:D 0
2 *237:Y 0.000469213
3 *18:10 0.000469213
4 *17:8 *18:10 0
*RES
1 *237:Y *18:10 45.1809 
2 *18:10 *252:D 40 
*END

*D_NET *19 0.000612131
*CONN
*I *260:A I *D sg13g2_dlygate4sd3_1
*I *239:Y O *D sg13g2_nor2b_1
*CAP
1 *260:A 0.000306065
2 *239:Y 0.000306065
3 *260:A *239:B_N 0
4 *260:A *246:RESET_B 0
5 *260:A *24:19 0
*RES
1 *239:Y *260:A 42.7504 
*END

*D_NET *20 0.00307884
*CONN
*I *242:C I *D sg13g2_and3_1
*I *241:A2 I *D sg13g2_a21oi_1
*I *240:Y O *D sg13g2_nor3_1
*CAP
1 *242:C 0.000224245
2 *241:A2 0.000267586
3 *240:Y 0.000449615
4 *20:6 0.000941446
5 *241:A2 *241:B1 0
6 *241:A2 *261:A 0
7 *241:A2 *28:20 0
8 *242:C *243:B 0
9 *242:C *243:C 0
10 *242:C *28:20 0
11 *20:6 *243:B 0.000242355
12 *20:6 *243:C 0
13 *238:B *241:A2 0
14 *240:B *20:6 0.0001773
15 *9:10 *20:6 0.000533939
16 *9:20 *20:6 0.000242355
*RES
1 *240:Y *20:6 25.5105 
2 *20:6 *241:A2 22.8943 
3 *20:6 *242:C 22.6471 
*END

*D_NET *21 0.000298758
*CONN
*I *261:A I *D sg13g2_dlygate4sd3_1
*I *241:Y O *D sg13g2_a21oi_1
*CAP
1 *261:A 0.000149379
2 *241:Y 0.000149379
3 *238:B *261:A 0
4 *241:A2 *261:A 0
*RES
1 *241:Y *261:A 41.4008 
*END

*D_NET *22 0.000868193
*CONN
*I *243:C I *D sg13g2_nor3_1
*I *242:X O *D sg13g2_and3_1
*CAP
1 *243:C 0.000434097
2 *242:X 0.000434097
3 *243:C *243:B 0
4 *243:C *24:6 0
5 *243:C *24:19 0
6 *243:C *24:35 0
7 *243:C *24:40 0
8 *242:C *243:C 0
9 *262:A *243:C 0
10 *20:6 *243:C 0
*RES
1 *242:X *243:C 44.0959 
*END

*D_NET *23 0.000691603
*CONN
*I *239:B_N I *D sg13g2_nor2b_1
*I *244:Q O *D sg13g2_dfrbpq_1
*CAP
1 *239:B_N 0.000345802
2 *244:Q 0.000345802
3 *239:B_N *257:A 0
4 *239:B_N *24:19 0
5 *239:B_N *25:16 0
6 *239:B_N *25:24 0
7 *260:A *239:B_N 0
8 *11:10 *239:B_N 0
*RES
1 *244:Q *239:B_N 43.6977 
*END

*D_NET *24 0.00333991
*CONN
*I *258:A I *D sg13g2_buf_16
*I *257:A I *D sg13g2_buf_16
*I *256:X O *D sg13g2_buf_16
*CAP
1 *258:A 7.05161e-05
2 *257:A 0.000126835
3 *256:X 0.000192266
4 *24:40 0.000788977
5 *24:35 0.000839164
6 *24:19 0.000688713
7 *24:6 0.00063344
8 *24:6 *246:RESET_B 0
9 *24:19 *246:RESET_B 0
10 *24:19 *28:20 0
11 *24:19 *30:8 0
12 *24:35 *246:RESET_B 0
13 *24:40 *246:RESET_B 0
14 *24:40 *254:RESET_B 0
15 *239:B_N *257:A 0
16 *239:B_N *24:19 0
17 *240:B *24:40 0
18 *243:C *24:6 0
19 *243:C *24:19 0
20 *243:C *24:35 0
21 *243:C *24:40 0
22 *259:A *257:A 0
23 *259:A *24:19 0
24 *260:A *24:19 0
25 *262:A *24:40 0
26 *3:10 *257:A 0
27 *3:10 *24:19 0
*RES
1 *256:X *24:6 20.7725 
2 *24:6 *24:19 45.974 
3 *24:19 *257:A 21.1845 
4 *256:X *24:35 21.4008 
5 *24:35 *24:40 7.7868 
6 *24:40 *258:A 20.8549 
*END

*D_NET *25 0.00407997
*CONN
*I *246:CLK I *D sg13g2_dfrbpq_1
*I *248:CLK I *D sg13g2_dfrbpq_1
*I *244:CLK I *D sg13g2_dfrbpq_1
*I *257:X O *D sg13g2_buf_16
*CAP
1 *246:CLK 0.00075185
2 *248:CLK 0
3 *244:CLK 0
4 *257:X 0.000198606
5 *25:24 0.00031373
6 *25:16 0.000891867
7 *25:10 0.00152859
8 *246:CLK *246:RESET_B 0
9 *25:24 *28:6 0
10 *25:24 *28:10 0
11 *239:B_N *25:16 0
12 *239:B_N *25:24 0
13 *256:A *246:CLK 0
14 *3:10 *246:CLK 0
15 *11:10 *25:16 0.000395329
*RES
1 *257:X *25:10 41.8746 
2 *25:10 *25:16 26.8186 
3 *25:16 *25:24 43.605 
4 *25:24 *244:CLK 20 
5 *25:16 *248:CLK 20 
6 *25:10 *246:CLK 47.4572 
*END

*D_NET *26 0.00299126
*CONN
*I *254:CLK I *D sg13g2_dfrbpq_1
*I *252:CLK I *D sg13g2_dfrbpq_1
*I *250:CLK I *D sg13g2_dfrbpq_1
*I *258:X O *D sg13g2_buf_16
*CAP
1 *254:CLK 0.000383414
2 *252:CLK 0.000204337
3 *250:CLK 3.02081e-05
4 *258:X 0.000174655
5 *26:14 0.000784343
6 *26:8 0.00110787
7 *252:CLK *252:RESET_B 0
8 *26:8 *236:A 0.000306442
9 *26:14 *252:RESET_B 0
10 *12:10 *254:CLK 0
11 *12:10 *26:14 0
12 *14:10 *254:CLK 0
*RES
1 *258:X *26:8 42.0497 
2 *26:8 *26:14 26.6332 
3 *26:14 *250:CLK 20.3502 
4 *26:14 *252:CLK 22.266 
5 *26:8 *254:CLK 44.7998 
*END

*D_NET *27 0.000987142
*CONN
*I *252:RESET_B I *D sg13g2_dfrbpq_1
*I *253:L_HI O *D sg13g2_tiehi
*CAP
1 *252:RESET_B 0.000493571
2 *253:L_HI 0.000493571
3 *252:RESET_B *250:RESET_B 0
4 *252:CLK *252:RESET_B 0
5 *26:14 *252:RESET_B 0
*RES
1 *253:L_HI *252:RESET_B 45.6238 
*END

*D_NET *28 0.00351852
*CONN
*I *234:A I *D sg13g2_inv_1
*I *241:B1 I *D sg13g2_a21oi_1
*I *242:A I *D sg13g2_and3_1
*I *263:X O *D sg13g2_buf_1
*CAP
1 *234:A 0
2 *241:B1 0.000159584
3 *242:A 0
4 *263:X 0.000452353
5 *28:42 0.00033813
6 *28:20 0.000366496
7 *28:10 0.000792087
8 *28:6 0.00105649
9 *241:B1 *248:RESET_B 1.54008e-05
10 *28:6 *244:RESET_B 0
11 *28:10 *244:RESET_B 0
12 *28:10 *248:RESET_B 0.00033798
13 *28:20 *241:A1 0
14 *238:B *241:B1 0
15 *241:A2 *241:B1 0
16 *241:A2 *28:20 0
17 *242:C *28:20 0
18 *24:19 *28:20 0
19 *25:24 *28:6 0
20 *25:24 *28:10 0
*RES
1 *263:X *28:6 25.0779 
2 *28:6 *28:10 3.0488 
3 *28:10 *28:20 44.4496 
4 *28:20 *242:A 20 
5 *28:10 *241:B1 22.1836 
6 *28:6 *28:42 43.1106 
7 *28:42 *234:A 20 
*END

*D_NET *29 0.000474875
*CONN
*I *250:RESET_B I *D sg13g2_dfrbpq_1
*I *251:L_HI O *D sg13g2_tiehi
*CAP
1 *250:RESET_B 0.000237437
2 *251:L_HI 0.000237437
3 *252:RESET_B *250:RESET_B 0
*RES
1 *251:L_HI *250:RESET_B 42.6162 
*END

*D_NET *30 0.000188258
*CONN
*I *239:A I *D sg13g2_nor2b_1
*I *259:X O *D sg13g2_dlygate4sd3_1
*CAP
1 *239:A 0
2 *259:X 9.41292e-05
3 *30:8 9.41292e-05
4 *24:19 *30:8 0
*RES
1 *259:X *30:8 40.8446 
2 *30:8 *239:A 40 
*END

*D_NET *31 0.000484652
*CONN
*I *242:B I *D sg13g2_and3_1
*I *241:A1 I *D sg13g2_a21oi_1
*I *260:X O *D sg13g2_dlygate4sd3_1
*CAP
1 *242:B 0
2 *241:A1 0.000121482
3 *260:X 0.000120844
4 *31:8 0.000242326
5 *28:20 *241:A1 0
*RES
1 *260:X *31:8 41.339 
2 *31:8 *241:A1 41.339 
3 *31:8 *242:B 40 
*END

*D_NET *32 0.000604756
*CONN
*I *243:B I *D sg13g2_nor3_1
*I *261:X O *D sg13g2_dlygate4sd3_1
*CAP
1 *243:B 0.0001812
2 *261:X 0.0001812
3 *242:C *243:B 0
4 *243:C *243:B 0
5 *20:6 *243:B 0.000242355
*RES
1 *261:X *243:B 41.9673 
*END

*D_NET *33 9.45957e-05
*CONN
*I *246:D I *D sg13g2_dfrbpq_1
*I *262:X O *D sg13g2_dlygate4sd3_1
*CAP
1 *246:D 4.72978e-05
2 *262:X 4.72978e-05
*RES
1 *262:X *246:D 40.5974 
*END

*D_NET *34 0.000861176
*CONN
*I *235:A I *D sg13g2_inv_1
*I *264:X O *D sg13g2_buf_1
*CAP
1 *235:A 5.02227e-05
2 *264:X 0.000380365
3 *34:8 0.000430588
4 *34:8 *35:10 0
5 *265:A *34:8 0
*RES
1 *264:X *34:8 44.0582 
2 *34:8 *235:A 40.5356 
*END

*D_NET *35 0.000595004
*CONN
*I *237:A I *D sg13g2_inv_1
*I *265:X O *D sg13g2_buf_1
*CAP
1 *237:A 0
2 *265:X 0.000297502
3 *35:10 0.000297502
4 *265:A *35:10 0
5 *34:8 *35:10 0
*RES
1 *265:X *35:10 42.8634 
2 *35:10 *237:A 40 
*END

*D_NET *36 0.000932275
*CONN
*I *236:A I *D sg13g2_inv_1
*I *266:X O *D sg13g2_buf_1
*CAP
1 *236:A 0.000312917
2 *266:X 0.000312917
3 *26:8 *236:A 0.000306442
*RES
1 *266:X *236:A 43.5638 
*END

*D_NET *37 0.000172882
*CONN
*I *267:A I *D sg13g2_buf_1
*I *246:Q O *D sg13g2_dfrbpq_1
*CAP
1 *267:A 8.64409e-05
2 *246:Q 8.64409e-05
*RES
1 *246:Q *267:A 41.0918 
*END

*D_NET *38 0.000497551
*CONN
*I *254:RESET_B I *D sg13g2_dfrbpq_1
*I *255:L_HI O *D sg13g2_tiehi
*CAP
1 *254:RESET_B 0.000248775
2 *255:L_HI 0.000248775
3 *240:B *254:RESET_B 0
4 *254:D *254:RESET_B 0
5 *24:40 *254:RESET_B 0
*RES
1 *255:L_HI *254:RESET_B 42.6162 
*END

*D_NET *39 0.00125341
*CONN
*I *244:RESET_B I *D sg13g2_dfrbpq_1
*I *245:L_HI O *D sg13g2_tiehi
*CAP
1 *244:RESET_B 0.000457526
2 *245:L_HI 0.000457526
3 *238:B *244:RESET_B 0.000338359
4 *244:D *244:RESET_B 0
5 *28:6 *244:RESET_B 0
6 *28:10 *244:RESET_B 0
*RES
1 *245:L_HI *244:RESET_B 44.7792 
*END

*D_NET *40 0.000833135
*CONN
*I *246:RESET_B I *D sg13g2_dfrbpq_1
*I *247:L_HI O *D sg13g2_tiehi
*CAP
1 *246:RESET_B 0.000416568
2 *247:L_HI 0.000416568
3 *246:CLK *246:RESET_B 0
4 *256:A *246:RESET_B 0
5 *260:A *246:RESET_B 0
6 *3:10 *246:RESET_B 0
7 *24:6 *246:RESET_B 0
8 *24:19 *246:RESET_B 0
9 *24:35 *246:RESET_B 0
10 *24:40 *246:RESET_B 0
*RES
1 *247:L_HI *246:RESET_B 44.7792 
*END

*D_NET *41 0.000802758
*CONN
*I *248:RESET_B I *D sg13g2_dfrbpq_1
*I *249:L_HI O *D sg13g2_tiehi
*CAP
1 *248:RESET_B 0.000224689
2 *249:L_HI 0.000224689
3 *241:B1 *248:RESET_B 1.54008e-05
4 *28:10 *248:RESET_B 0.00033798
*RES
1 *249:L_HI *248:RESET_B 42.6162 
*END
